20
 generated by VMD
 C         -33.646332      -96.126160      -25.445295
 N         -34.094704      -96.833580      -26.222273
 H         -34.815384      -94.252075      -27.301275
 H         -33.107677      -95.620888      -24.567162
 C         -34.889866      -93.982811      -28.348288
 C         -35.909561      -94.567612      -29.268229
 C         -33.597294      -93.742958      -29.065178
 C         -36.108742      -93.584770      -30.478157
 C         -33.772522      -92.816788      -30.308504
 C         -34.815338      -93.404243      -31.256573
 H         -36.822285      -94.818703      -28.731678
 H         -35.494892      -95.530548      -29.764328
 H         -32.979866      -93.263908      -28.267866
 H         -33.115761      -94.714981      -29.426237
 H         -36.453270      -92.591156      -30.158188
 H         -36.966831      -94.021370      -31.093319
 H         -32.853615      -92.751167      -30.800737
 H         -34.004253      -91.759865      -29.935442
 H         -34.989868      -92.814774      -32.147659
 H         -34.479816      -94.582512      -31.734293
