20
 generated by VMD
 C         -38.005230     -109.840401      -36.348038
 N         -37.442089     -108.884201      -35.987373
 H         -40.494701     -112.648315      -36.974960
 H         -38.589039     -110.691612      -36.525234
 C         -41.270439     -112.716537      -36.218952
 C         -42.390064     -113.740509      -36.483631
 C         -41.501057     -111.697517      -35.273342
 C         -43.273743     -114.173561      -35.293785
 C         -42.409508     -112.084290      -34.022320
 C         -43.614777     -112.969246      -34.442196
 H         -41.818954     -114.598312      -36.946037
 H         -42.968418     -113.352577      -37.310280
 H         -40.677551     -111.301941      -34.728462
 H         -41.968979     -110.788734      -35.650101
 H         -42.844791     -114.922890      -34.664581
 H         -44.296959     -114.479691      -35.787201
 H         -42.775055     -111.230835      -33.375042
 H         -41.663067     -112.527649      -33.368404
 H         -44.215508     -113.239128      -33.558731
 H         -44.270782     -112.218544      -34.971210
