20
 generated by VMD
 C         -11.862435      -37.893974       -7.843906
 N         -11.165775      -37.622189       -7.030619
 H         -12.463703      -41.554897       -8.707310
 H         -13.463417      -40.480259       -7.629792
 C         -13.537932      -41.166725       -8.513312
 C         -14.412881      -42.361656       -8.078367
 C         -14.193590      -40.469719       -9.701541
 C         -15.915339      -41.980442       -7.899792
 C         -15.530690      -39.855778       -9.283525
 C         -16.491541      -41.035206       -8.957711
 H         -13.991880      -42.880554       -7.165743
 H         -14.246968      -43.158630       -8.844604
 H         -13.449606      -39.779285      -10.154567
 H         -14.301492      -41.174240      -10.517226
 H         -16.085508      -41.525066       -6.936325
 H         -16.512297      -42.929596       -7.830296
 H         -15.901272      -39.353710      -10.127587
 H         -15.536883      -39.201965       -8.338103
 H         -17.480589      -40.625988       -8.692357
 H         -16.577169      -41.622097       -9.888540
