20
 generated by VMD
 C         -66.237740     -189.658966      -66.747276
 N         -66.335114     -189.180496      -67.792969
 H         -69.901421     -189.924240      -65.254135
 H         -66.222664     -190.109238      -65.720421
 C         -70.677444     -189.861389      -64.441811
 C         -71.835136     -190.666626      -64.088058
 C         -70.438248     -188.490234      -63.677166
 C         -73.136024     -189.799362      -63.779587
 C         -71.788345     -187.816284      -63.817974
 C         -72.954346     -188.513290      -63.153656
 H         -71.565689     -191.388840      -63.257244
 H         -72.161697     -191.412292      -64.864502
 H         -70.235527     -188.703278      -62.637680
 H         -69.567459     -187.884888      -64.196671
 H         -73.715446     -190.378098      -63.114590
 H         -73.736977     -189.631943      -64.700623
 H         -72.167130     -187.745041      -64.849358
 H         -71.656441     -186.881653      -63.327404
 H         -72.795937     -188.555557      -62.023159
 H         -73.970749     -187.995209      -63.183971
