20
 generated by VMD
 C          -9.053614      -23.764071        2.609668
 N          -8.486583      -24.706789        2.720606
 H          -8.465618      -23.507801       -1.252731
 H          -9.229692      -22.617861       -2.514801
 C          -8.248088      -22.983044       -2.188614
 C          -7.630211      -24.058376       -3.115926
 C          -7.238669      -21.807554       -1.999745
 C          -7.333557      -23.547434       -4.530724
 C          -6.887313      -21.210613       -3.449609
 C          -6.425032      -22.297979       -4.475878
 H          -8.398398      -24.872585       -3.235428
 H          -6.665156      -24.486546       -2.671580
 H          -7.656037      -21.037535       -1.350538
 H          -6.347885      -22.169538       -1.474638
 H          -8.207833      -23.180616       -5.028158
 H          -6.743650      -24.328629       -5.058926
 H          -6.093385      -20.488638       -3.422687
 H          -7.786276      -20.703974       -3.791457
 H          -6.284719      -21.961098       -5.504463
 H          -5.365654      -22.563776       -4.174650
