20
 generated by VMD
 C         -40.890759     -104.183426      -36.573948
 N         -41.656967     -104.992531      -36.305069
 H         -39.084702     -104.816223      -33.577011
 H         -40.402805     -103.238274      -36.681866
 C         -38.662838     -105.703545      -33.078304
 C         -37.351364     -105.785133      -32.417305
 C         -39.393433     -106.872681      -33.453403
 C         -37.372780     -106.755859      -31.173653
 C         -39.515293     -107.705025      -32.227730
 C         -38.129204     -108.014618      -31.502371
 H         -36.904011     -104.867271      -32.154068
 H         -36.642624     -106.060120      -33.242329
 H         -40.419750     -106.856865      -33.791489
 H         -38.845196     -107.402390      -34.263748
 H         -37.594490     -106.115051      -30.313293
 H         -36.282253     -107.004997      -30.935041
 H         -40.009663     -108.631882      -32.589157
 H         -40.087669     -107.173454      -31.487722
 H         -38.150833     -108.698189      -30.679678
 H         -37.612976     -108.534531      -32.337994
