20
 generated by VMD
 C         -51.229107     -129.705093      -45.241329
 N         -51.675533     -130.144638      -46.259953
 H         -48.499573     -130.227036      -43.683395
 H         -51.230034     -129.441788      -44.210243
 C         -48.064339     -130.428482      -42.699165
 C         -48.103962     -131.777267      -41.929070
 C         -47.603832     -129.326126      -41.777142
 C         -46.866379     -132.058182      -41.113838
 C         -46.348309     -129.649460      -40.933708
 C         -46.413063     -130.988342      -40.193111
 H         -48.391243     -132.634811      -42.645844
 H         -48.892384     -131.784698      -41.218311
 H         -47.342003     -128.385544      -42.341843
 H         -48.505650     -129.226776      -41.071735
 H         -46.008972     -132.349930      -41.805489
 H         -46.798103     -132.929031      -40.451488
 H         -46.260437     -128.824005      -40.167706
 H         -45.578110     -129.535416      -41.606045
 H         -45.447876     -131.051208      -39.764400
 H         -47.242367     -130.851562      -39.474476
