20
 generated by VMD
 C         -20.062801      -56.139690      -16.816980
 N         -21.197311      -56.387642      -16.550062
 H         -21.915241      -59.371563      -17.290621
 H         -19.124100      -55.809204      -16.620899
 C         -22.247488      -60.015457      -16.526127
 C         -22.650080      -59.391941      -15.171805
 C         -22.015224      -61.380123      -16.486393
 C         -21.482246      -59.720505      -14.130802
 C         -20.840393      -61.737427      -15.611861
 C         -20.958014      -61.175373      -14.215786
 H         -23.666086      -59.738705      -14.800583
 H         -22.634827      -58.257252      -15.310745
 H         -22.899626      -61.835289      -16.119709
 H         -21.862820      -61.726467      -17.485023
 H         -21.981657      -59.678150      -13.202638
 H         -20.668268      -59.002800      -14.073536
 H         -19.901306      -61.312401      -16.077520
 H         -20.905928      -62.859676      -15.597872
 H         -21.459064      -61.814926      -13.503684
 H         -19.960402      -61.091408      -13.715449
