20
 generated by VMD
 C         -12.696969      -31.204540       -8.298045
 N         -12.225932      -30.286367       -7.852836
 H         -11.546419      -33.737179       -7.648166
 H         -12.498671      -33.075417       -6.286813
 C         -11.732584      -33.835312       -6.498594
 C         -10.466809      -33.423058       -5.782108
 C         -12.282945      -35.223763       -6.052636
 C         -10.488858      -33.634811       -4.269898
 C         -12.244061      -35.419186       -4.508712
 C         -10.913567      -35.018120       -3.911098
 H         -10.199446      -32.325424       -5.977695
 H          -9.590868      -33.924984       -6.178266
 H         -13.250261      -35.402042       -6.549265
 H         -11.628455      -35.982307       -6.508268
 H         -11.116406      -32.875370       -3.774044
 H          -9.494817      -33.267124       -3.919992
 H         -12.465456      -36.507786       -4.329745
 H         -13.027484      -34.941681       -3.958278
 H         -10.904404      -35.216728       -2.853643
 H         -10.184765      -35.691166       -4.379171
