20
 generated by VMD
 C         -27.735184      -81.607216      -26.740726
 N         -28.245056      -82.147820      -27.645361
 H         -31.022577      -83.747330      -26.131338
 H         -27.478508      -81.134789      -25.779137
 C         -31.080803      -84.420753      -25.363016
 C         -30.724747      -84.194252      -23.973289
 C         -31.724987      -85.652855      -25.784985
 C         -31.715359      -84.768570      -22.913637
 C         -32.867218      -86.105408      -24.858601
 C         -32.358852      -86.098541      -23.403431
 H         -30.518354      -83.103981      -23.973240
 H         -29.802118      -84.728012      -23.849390
 H         -31.958681      -85.490211      -26.898445
 H         -31.049774      -86.536301      -25.830351
 H         -32.626053      -84.054741      -22.671371
 H         -31.162004      -84.977783      -22.012213
 H         -33.250088      -87.068619      -25.244234
 H         -33.754482      -85.326965      -24.849571
 H         -33.250820      -86.422325      -22.758284
 H         -31.641754      -86.891060      -23.316845
