20
 generated by VMD
 C         -70.821457     -181.613510      -64.190109
 N         -70.117638     -182.409714      -63.650219
 H         -68.587173     -180.905716      -61.352768
 H         -71.417526     -180.922134      -64.717316
 C         -67.572983     -180.706879      -60.940239
 C         -66.508102     -181.881271      -60.582817
 C         -67.284958     -179.296432      -60.369804
 C         -65.085236     -181.406387      -60.768017
 C         -65.948685     -178.880493      -60.906681
 C         -64.911636     -179.886429      -60.336563
 H         -66.740807     -182.739502      -61.187164
 H         -66.760674     -182.231003      -59.604664
 H         -67.957733     -178.490829      -60.812675
 H         -67.371788     -179.254105      -59.186817
 H         -64.913048     -181.420898      -61.890377
 H         -64.474030     -182.202042      -60.293396
 H         -65.693909     -177.871078      -60.570354
 H         -66.028931     -178.982025      -62.020927
 H         -63.920364     -179.613007      -60.559437
 H         -64.956459     -179.798508      -59.244987
