20
 generated by VMD
 C         -23.418779      -53.202759      -13.921466
 N         -24.008797      -53.074055      -14.866013
 H         -20.499529      -55.190472      -15.050080
 H         -22.738899      -53.492447      -12.970615
 C         -19.603781      -55.330006      -14.389985
 C         -19.083502      -54.067844      -13.884259
 C         -18.637947      -56.456142      -14.592866
 C         -18.154337      -54.168350      -12.705058
 C         -17.432440      -56.454460      -13.722073
 C         -17.016510      -55.182915      -12.913601
 H         -19.975126      -53.462635      -13.573599
 H         -18.489626      -53.573997      -14.699730
 H         -19.204414      -57.433544      -14.593740
 H         -18.301250      -56.315239      -15.641258
 H         -18.647507      -54.589783      -11.829224
 H         -17.838531      -53.154678      -12.507517
 H         -16.574505      -56.783638      -14.293955
 H         -17.531700      -57.220322      -12.941615
 H         -16.599522      -55.498016      -11.908240
 H         -16.201120      -54.704609      -13.458987
