20
 generated by VMD
 C         -59.643066     -152.043701      -49.589451
 N         -58.687977     -152.367447      -50.186382
 H         -56.755661     -151.108292      -48.723026
 H         -60.462364     -151.651581      -48.967403
 C         -55.853260     -150.559204      -49.156792
 C         -54.784721     -151.499283      -49.685932
 C         -55.374752     -149.045959      -49.090725
 C         -54.216240     -151.104141      -51.058380
 C         -54.825573     -148.690369      -50.607731
 C         -53.757469     -149.673386      -51.119434
 H         -55.168671     -152.485397      -49.949436
 H         -54.104904     -151.783264      -48.875725
 H         -56.145596     -148.400131      -48.719692
 H         -54.529175     -149.151627      -48.417397
 H         -54.980976     -151.359253      -51.829872
 H         -53.375740     -151.694443      -51.451965
 H         -54.398598     -147.768250      -50.562878
 H         -55.787571     -148.775055      -51.286999
 H         -53.536449     -149.411179      -52.181484
 H         -52.772713     -149.644012      -50.511024
