20
 generated by VMD
 C         -47.452984     -137.225174      -46.135857
 N         -47.155029     -136.674484      -47.098511
 H         -50.324234     -136.361160      -45.119686
 H         -47.836826     -137.678711      -45.207325
 C         -51.118984     -137.068695      -44.829449
 C         -51.405357     -137.923264      -46.022049
 C         -52.235237     -136.911957      -43.817017
 C         -52.093998     -139.236862      -45.658009
 C         -53.015980     -138.220535      -43.524101
 C         -53.373863     -139.043884      -44.786926
 H         -50.462959     -137.994476      -46.535919
 H         -51.925217     -137.276718      -46.773308
 H         -51.790497     -136.446075      -42.904270
 H         -52.833096     -136.146408      -44.267609
 H         -51.338867     -139.723831      -45.109360
 H         -52.428841     -139.816711      -46.540726
 H         -54.057713     -137.928452      -43.226170
 H         -52.477829     -138.903183      -42.891819
 H         -53.830460     -139.946838      -44.614609
 H         -54.094578     -138.508942      -45.455235
