20
 generated by VMD
 C          -1.516554      -11.276670        1.574787
 N          -1.098112      -12.094487        0.951997
 H          -3.645731      -13.200432        0.331704
 H          -5.387049      -12.885723        0.889077
 C          -4.553559      -13.614745        0.848290
 C          -4.213583      -13.802768        2.293980
 C          -4.986225      -14.932173        0.143522
 C          -5.247865      -14.558619        3.071216
 C          -6.179413      -15.570716        0.964001
 C          -5.615587      -15.874697        2.341949
 H          -3.976460      -12.851808        2.689038
 H          -3.231952      -14.340382        2.294896
 H          -5.338149      -14.637332       -0.860468
 H          -4.221724      -15.704461        0.090637
 H          -6.133300      -13.917521        3.255430
 H          -4.762497      -14.763513        4.009371
 H          -6.548530      -16.448860        0.437934
 H          -6.999673      -14.822121        0.960422
 H          -6.426845      -16.350437        2.889335
 H          -4.787416      -16.566675        2.273383
