20
 generated by VMD
 C         -78.716011     -208.182510      -76.796028
 N         -78.913582     -208.246353      -75.669792
 H         -79.001671     -210.007172      -73.550659
 H         -78.711777     -208.180603      -77.855492
 C         -78.628075     -210.116821      -72.536552
 C         -77.300896     -209.443436      -72.101578
 C         -79.114189     -211.315475      -71.759811
 C         -77.013428     -209.573425      -70.636063
 C         -78.949921     -211.192886      -70.305130
 C         -77.514999     -210.785980      -70.050247
 H         -77.311302     -208.390945      -72.314804
 H         -76.487167     -209.845993      -72.587151
 H         -80.136391     -211.450470      -72.056541
 H         -78.611397     -212.205551      -72.143288
 H         -77.658852     -208.814789      -70.183937
 H         -76.002197     -209.265320      -70.317802
 H         -79.161758     -212.024979      -69.724426
 H         -79.684982     -210.332642      -70.003593
 H         -77.560989     -210.549377      -69.018570
 H         -77.025925     -211.731003      -70.244209
