20
 generated by VMD
 C         -19.815718      -61.753902      -16.280613
 N         -20.110754      -61.098148      -17.225817
 H         -21.708153      -63.009876      -17.538847
 H         -19.389902      -62.223019      -15.433889
 C         -22.579918      -63.586666      -17.420208
 C         -23.562037      -63.636490      -18.619167
 C         -23.190050      -63.891766      -16.012545
 C         -24.642452      -64.788666      -18.587917
 C         -24.238333      -65.039093      -16.208393
 C         -25.307970      -64.706833      -17.206850
 H         -22.947762      -63.708828      -19.497433
 H         -24.059273      -62.668079      -18.584219
 H         -22.310423      -64.095268      -15.406234
 H         -23.696131      -63.046181      -15.524097
 H         -24.308199      -65.785576      -18.896862
 H         -25.328875      -64.447533      -19.433062
 H         -24.761860      -65.142212      -15.285977
 H         -23.667490      -65.936028      -16.383274
 H         -26.236107      -65.271538      -17.304932
 H         -25.521076      -63.604191      -17.133675
