20
 generated by VMD
 C         -56.317951     -149.983810      -47.723343
 N         -57.407257     -150.300613      -47.502785
 H         -53.001293     -147.850998      -47.440468
 H         -55.277119     -149.713257      -47.905636
 C         -53.549706     -147.707977      -48.400051
 C         -53.199078     -148.525726      -49.546814
 C         -54.527866     -146.629288      -48.559860
 C         -54.214931     -148.565430      -50.665672
 C         -55.537968     -146.715942      -49.709629
 C         -54.947708     -147.214661      -50.953758
 H         -52.822514     -149.625092      -49.204029
 H         -52.260189     -148.121841      -49.802910
 H         -55.032242     -146.550476      -47.499718
 H         -53.952644     -145.682587      -48.690331
 H         -54.815784     -149.510529      -50.561367
 H         -53.633751     -148.764969      -51.578564
 H         -56.000469     -145.805054      -50.017742
 H         -56.407360     -147.287399      -49.437981
 H         -55.641624     -147.325851      -51.830814
 H         -54.182499     -146.511734      -51.292675
