20
 generated by VMD
 C         -38.866829     -109.839714      -35.894066
 N         -37.953362     -109.160858      -36.085419
 H         -42.194263     -110.499588      -37.111774
 H         -39.857449     -110.364975      -35.744480
 C         -41.930519     -110.895279      -36.106941
 C         -41.758076     -112.478065      -36.252563
 C         -42.368317     -110.249298      -34.856236
 C         -41.109798     -113.034126      -34.851418
 C         -41.577213     -110.849442      -33.651787
 C         -41.805088     -112.401726      -33.664471
 H         -41.104698     -112.774803      -37.136581
 H         -42.697109     -112.942245      -36.547562
 H         -42.036903     -109.243385      -34.932846
 H         -43.451164     -110.393616      -34.698040
 H         -40.032852     -112.689896      -34.888870
 H         -41.010300     -114.073578      -34.782173
 H         -41.799988     -110.384399      -32.706871
 H         -40.524113     -110.705544      -33.883011
 H         -41.242130     -112.633537      -32.775501
 H         -42.842190     -112.592590      -33.727707
