20
 generated by VMD
 C         -27.926865      -82.658340      -27.233288
 N         -27.196455      -83.374931      -26.694733
 H         -31.449196      -84.265755      -26.505276
 H         -28.596359      -81.965088      -27.575657
 C         -31.721722      -84.969879      -25.776550
 C         -31.428911      -84.836761      -24.305250
 C         -32.397652      -86.243050      -26.408144
 C         -32.449825      -85.525261      -23.415390
 C         -33.167099      -87.068588      -25.350388
 C         -32.649460      -86.948654      -23.970612
 H         -31.126736      -83.865761      -23.778341
 H         -30.503130      -85.438049      -24.196342
 H         -32.860905      -85.979126      -27.376760
 H         -31.542025      -86.908745      -26.642145
 H         -33.345341      -84.928947      -23.506741
 H         -32.110611      -85.726822      -22.395052
 H         -33.185905      -88.122688      -25.637341
 H         -34.202736      -86.734711      -25.485785
 H         -33.495384      -87.264313      -23.224758
 H         -31.862520      -87.609230      -23.703548
