20
 generated by VMD
 C         -38.943531     -112.090088      -35.881695
 N         -38.492504     -111.463257      -36.765839
 H         -40.792927     -115.043900      -34.938541
 H         -39.519287     -112.422684      -34.971714
 C         -41.448742     -114.269005      -35.377728
 C         -41.764523     -114.401115      -36.874107
 C         -42.174347     -113.206924      -34.617977
 C         -43.260841     -114.411942      -37.159447
 C         -43.667191     -113.328918      -34.867611
 C         -44.088486     -113.312653      -36.383114
 H         -41.318363     -115.358658      -37.172832
 H         -41.073689     -113.704842      -37.369606
 H         -42.002998     -113.392448      -33.543976
 H         -41.907982     -112.145050      -34.833309
 H         -43.546871     -115.379929      -36.753239
 H         -43.507812     -114.445549      -38.273884
 H         -44.349186     -112.859459      -34.172241
 H         -44.080528     -114.281197      -34.557243
 H         -45.113255     -113.457520      -36.392372
 H         -43.948288     -112.334877      -36.847244
