20
 generated by VMD
 C         -50.410946     -129.395218      -43.582500
 N         -50.855061     -129.933792      -44.450172
 H         -49.136032     -128.045715      -41.070400
 H         -49.807198     -128.852066      -42.903645
 C         -48.046181     -128.247635      -41.145054
 C         -47.750496     -129.759796      -41.030392
 C         -47.034660     -127.215622      -40.883945
 C         -46.432308     -130.049881      -41.638786
 C         -45.662086     -127.614433      -41.287010
 C         -45.395382     -129.124817      -41.113861
 H         -48.659393     -130.329422      -41.337364
 H         -47.632545     -130.117401      -40.010056
 H         -47.246548     -126.384186      -41.611145
 H         -47.031673     -126.872459      -39.864391
 H         -46.536156     -130.155212      -42.789852
 H         -46.090401     -131.114990      -41.493877
 H         -44.812798     -127.151398      -40.752419
 H         -45.403313     -127.397430      -42.354103
 H         -44.531136     -129.456238      -41.701553
 H         -45.259201     -129.257034      -40.073330
