20
 generated by VMD
 C         -13.072046      -28.609354       -5.357556
 N         -12.794697      -27.533957       -5.539445
 H         -11.286603      -30.838703       -3.147522
 H         -11.138917      -29.397495       -3.975024
 C         -10.508253      -30.236837       -3.611465
 C          -9.761770      -30.929859       -4.677862
 C          -9.577875      -29.695522       -2.571855
 C          -8.696942      -30.050110       -5.330432
 C          -8.594738      -28.780012       -3.168336
 C          -7.772662      -29.355398       -4.241682
 H         -10.426585      -31.257811       -5.523145
 H          -9.386921      -31.859583       -4.315811
 H         -10.148415      -29.168043       -1.815485
 H          -9.058840      -30.536606       -2.031587
 H          -9.168863      -29.325607       -5.987042
 H          -8.100201      -30.606884       -6.043658
 H          -7.995059      -28.360077       -2.320420
 H          -9.129848      -27.881680       -3.512424
 H          -7.287130      -28.495106       -4.663557
 H          -7.015332      -30.127602       -3.920398
