20
 generated by VMD
 C         -29.160240      -73.419846      -19.264439
 N         -29.630981      -74.359322      -18.718063
 H         -25.753302      -73.021019      -18.747051
 H         -28.491522      -72.567970      -19.502768
 C         -25.506071      -72.822876      -19.832180
 C         -24.856960      -73.782852      -20.755075
 C         -25.663797      -71.513222      -20.437695
 C         -25.601980      -73.845665      -22.121765
 C         -26.241796      -71.610344      -21.810198
 C         -25.557806      -72.427582      -22.808317
 H         -24.920334      -74.853882      -20.337849
 H         -23.801773      -73.695686      -20.948593
 H         -26.273603      -70.873169      -19.746893
 H         -24.755791      -70.973030      -20.558788
 H         -26.639154      -74.150810      -21.938274
 H         -25.146870      -74.650650      -22.704222
 H         -26.224148      -70.490814      -22.154066
 H         -27.370920      -71.842857      -21.679911
 H         -26.080225      -72.224930      -23.761250
 H         -24.550695      -72.082787      -22.947718
