20
 generated by VMD
 C         -39.435707      -99.086212      -28.156982
 N         -38.748981      -99.970963      -27.801920
 H         -37.464043      -97.864006      -30.892796
 H         -40.088730      -98.404533      -28.565161
 C         -36.387009      -97.993813      -30.754166
 C         -35.680744      -98.520744      -32.009323
 C         -35.624561      -97.612816      -29.500113
 C         -34.493923      -97.591530      -32.341579
 C         -34.409203      -96.776199      -29.950920
 C         -33.551414      -97.370720      -31.229418
 H         -36.357410      -98.358177      -32.830887
 H         -35.343975      -99.618813      -31.968302
 H         -36.149460      -97.063576      -28.690834
 H         -35.224815      -98.598221      -29.046112
 H         -34.909855      -96.569786      -32.685219
 H         -33.883656      -97.967308      -33.136356
 H         -33.700531      -96.691772      -29.062603
 H         -34.916206      -95.773788      -30.037651
 H         -32.649574      -96.727310      -31.536617
 H         -33.132668      -98.266678      -30.893307
