20
 generated by VMD
 C         -30.165495      -74.070107      -20.687294
 N         -29.997192      -75.183128      -20.374678
 H         -27.208290      -74.461967      -19.210541
 H         -30.368193      -73.067772      -21.235388
 C         -26.707376      -74.371346      -20.191309
 C         -26.093988      -75.506729      -20.937613
 C         -25.975689      -73.030281      -20.425438
 C         -25.997831      -75.156944      -22.486483
 C         -25.906939      -72.713646      -21.865278
 C         -25.263777      -73.800430      -22.658201
 H         -26.707834      -76.390968      -20.845425
 H         -25.161144      -75.878311      -20.476681
 H         -26.501122      -72.211472      -19.892862
 H         -25.065674      -73.047279      -19.953587
 H         -27.002337      -75.159050      -23.028418
 H         -25.378134      -75.949905      -22.942942
 H         -25.211668      -71.931824      -21.862080
 H         -26.899921      -72.287956      -22.123600
 H         -25.276369      -73.556885      -23.758383
 H         -24.235022      -73.826904      -22.223227
