20
 generated by VMD
 C         -35.426937      -97.484917      -25.555161
 N         -34.961277      -97.743088      -26.583750
 H         -35.671097      -94.574493      -27.688375
 H         -35.849358      -97.115944      -24.546757
 C         -35.373760      -94.427940      -28.717625
 C         -35.915298      -95.320259      -29.824207
 C         -33.958931      -93.974747      -28.998343
 C         -35.705872      -94.914024      -31.281221
 C         -33.754425      -93.427933      -30.431437
 C         -34.253029      -94.315247      -31.487391
 H         -37.004543      -95.422165      -29.598688
 H         -35.485405      -96.238876      -29.529602
 H         -33.576984      -93.249062      -28.251396
 H         -33.166374      -94.761673      -28.925234
 H         -36.525402      -94.206787      -31.503119
 H         -35.944035      -95.670906      -31.958178
 H         -32.721611      -93.075867      -30.606981
 H         -34.288334      -92.496780      -30.606447
 H         -34.193703      -93.789528      -32.500000
 H         -33.648106      -95.367188      -31.514694
