20
 generated by VMD
 C          -3.483016      -17.371191        2.213061
 N          -3.193401      -18.431520        2.028464
 H          -5.588506      -20.393572        0.680192
 H          -5.955323      -20.933832       -0.986197
 C          -6.052984      -20.094681       -0.280432
 C          -5.430325      -18.823841       -0.875365
 C          -7.600551      -19.917246        0.010293
 C          -6.196509      -18.237244       -2.026990
 C          -8.294354      -19.385090       -1.269238
 C          -7.697982      -18.065765       -1.745608
 H          -4.417887      -18.953411       -1.347884
 H          -5.301538      -18.064066       -0.088022
 H          -8.005570      -20.830648        0.400500
 H          -7.802287      -19.226770        0.841104
 H          -6.075676      -18.848579       -2.870733
 H          -5.714734      -17.307919       -2.325374
 H          -9.357497      -19.302309       -1.066757
 H          -8.212294      -20.079473       -2.075818
 H          -8.118558      -17.868526       -2.738078
 H          -7.993163      -17.168613       -1.145780
