20
 generated by VMD
 C         -56.201458     -150.166260      -46.963066
 N         -57.077808     -150.347885      -46.263069
 H         -53.472923     -147.728470      -47.568249
 H         -55.379196     -150.111450      -47.670265
 C         -53.826103     -147.534592      -48.563553
 C         -53.135281     -148.094223      -49.723675
 C         -54.449677     -146.208649      -48.587368
 C         -53.798534     -147.865128      -51.027493
 C         -55.400814     -146.123154      -49.745010
 C         -54.726982     -146.571213      -51.100647
 H         -53.107262     -149.215454      -49.595036
 H         -52.226635     -147.631226      -49.577328
 H         -55.064667     -146.186646      -47.693253
 H         -53.811928     -145.363922      -48.692947
 H         -54.566105     -148.685867      -51.207836
 H         -53.035717     -147.936508      -51.818882
 H         -55.829922     -145.161972      -49.809353
 H         -56.239407     -146.953232      -49.596581
 H         -55.581711     -146.785004      -51.763233
 H         -54.074959     -145.818390      -51.473873
