20
 generated by VMD
 C         -35.804905      -97.874580      -26.756695
 N         -36.267185      -97.883324      -25.696440
 H         -36.228573      -95.108925      -28.164654
 H         -35.276752      -97.835785      -27.629625
 C         -35.439892      -95.160042      -28.922747
 C         -35.719273      -96.042664      -30.127413
 C         -34.098785      -94.356598      -29.024567
 C         -35.423824      -95.348541      -31.538849
 C         -33.853756      -93.698822      -30.392223
 C         -34.099461      -94.638474      -31.612684
 H         -36.745445      -96.396759      -30.166628
 H         -35.066978      -96.994087      -30.108284
 H         -34.046501      -93.579254      -28.253284
 H         -33.350857      -95.067444      -28.694334
 H         -36.249535      -94.691559      -31.828249
 H         -35.387074      -96.173439      -32.302784
 H         -32.738293      -93.470963      -30.402901
 H         -34.412189      -92.793182      -30.603043
 H         -34.044514      -94.161087      -32.455513
 H         -33.337341      -95.447548      -31.723009
