20
 generated by VMD
 C         -27.464643      -84.580635      -26.292383
 N         -27.991547      -85.388046      -26.953823
 H         -31.142937      -84.918831      -26.187569
 H         -27.032013      -83.727417      -25.689970
 C         -31.949553      -85.536552      -25.822897
 C         -32.216854      -85.878693      -24.302299
 C         -32.181850      -86.523354      -26.922321
 C         -33.419033      -86.849098      -24.165319
 C         -33.409618      -87.423927      -26.604546
 C         -33.525429      -87.934143      -25.216684
 H         -32.337284      -84.985397      -23.775925
 H         -31.337679      -86.389725      -23.948832
 H         -32.313313      -86.125229      -27.913347
 H         -31.405058      -87.268311      -26.937170
 H         -34.302307      -86.230957      -24.269205
 H         -33.265457      -87.264305      -23.099751
 H         -33.212803      -88.314148      -27.325314
 H         -34.368782      -86.975273      -26.842003
 H         -34.523460      -88.388596      -25.168139
 H         -32.806610      -88.725380      -24.786800
