20
 generated by VMD
 C         -46.776718     -125.152428      -38.292835
 N         -47.722748     -124.948036      -37.674603
 H         -44.704033     -122.278008      -37.594967
 H         -45.880753     -125.085342      -38.961773
 C         -44.711258     -122.293922      -38.739090
 C         -43.567413     -122.551819      -39.547756
 C         -45.712166     -121.399292      -39.469345
 C         -43.957539     -123.343697      -40.880795
 C         -46.135120     -122.104706      -40.720413
 C         -44.954643     -122.371346      -41.587261
 H         -42.989292     -123.174393      -38.929714
 H         -42.915279     -121.708038      -39.746185
 H         -46.617733     -121.168358      -38.854321
 H         -45.235508     -120.476746      -39.746662
 H         -44.369442     -124.314079      -40.500648
 H         -43.038010     -123.336212      -41.487007
 H         -46.728462     -121.430611      -41.363129
 H         -46.720985     -123.084358      -40.627724
 H         -45.268543     -122.928322      -42.464291
 H         -44.474030     -121.433289      -41.942158
