20
 generated by VMD
 C         -28.854504      -81.421768      -27.680819
 N         -29.709547      -80.684906      -27.466127
 H         -29.278982      -82.242821      -24.088051
 H         -28.086317      -82.162758      -27.701969
 C         -29.618130      -83.275429      -23.907734
 C         -29.823980      -83.856346      -22.565470
 C         -30.183966      -84.051392      -25.097683
 C         -31.405996      -84.008667      -22.356426
 C         -31.700802      -84.270569      -24.875095
 C         -31.953556      -84.844856      -23.456516
 H         -29.413805      -83.137344      -21.834257
 H         -29.204884      -84.692818      -22.412697
 H         -30.106642      -83.430153      -25.955898
 H         -29.568100      -84.924248      -25.250807
 H         -31.943636      -83.054398      -22.353956
 H         -31.613333      -84.326286      -21.212660
 H         -32.149197      -84.930565      -25.698420
 H         -32.148975      -83.322113      -24.920837
 H         -33.025112      -84.712219      -23.315975
 H         -31.695168      -85.896179      -23.481573
