20
 generated by VMD
 C         -41.144909     -104.579681      -35.870319
 N         -42.095463     -104.934906      -36.452297
 H         -38.417286     -104.059303      -33.008770
 H         -40.139599     -104.473679      -35.384537
 C         -38.114777     -105.038338      -32.830334
 C         -36.876324     -105.420258      -32.128258
 C         -39.121933     -106.067673      -33.363327
 C         -37.104794     -106.685104      -31.118650
 C         -39.423676     -107.012589      -32.314598
 C         -38.119057     -107.702156      -31.709885
 H         -36.325306     -104.647217      -31.643415
 H         -36.266617     -105.830643      -32.979778
 H         -39.987091     -105.541107      -33.646530
 H         -38.764347     -106.546738      -34.325428
 H         -37.358727     -106.109245      -30.179068
 H         -36.204205     -107.229713      -30.778751
 H         -40.030678     -107.732735      -32.851562
 H         -40.075623     -106.478874      -31.502127
 H         -38.357708     -108.549324      -30.983149
 H         -37.659760     -108.149689      -32.579872
