20
 generated by VMD
 C          -2.054792      -14.688291        1.791730
 N          -1.579368      -15.368505        2.535493
 H          -3.899765      -16.374989        0.490552
 H          -4.534588      -17.168072       -1.014604
 C          -4.802807      -16.759308        0.006460
 C          -5.882249      -15.670155       -0.170807
 C          -5.353585      -18.005949        0.778217
 C          -7.147269      -16.267776       -0.760419
 C          -6.660399      -18.487518        0.212827
 C          -7.716005      -17.363586        0.120077
 H          -5.405866      -14.902804       -0.823222
 H          -6.159584      -15.224263        0.791593
 H          -4.584328      -18.898037        0.631832
 H          -5.396694      -17.700830        1.915656
 H          -6.974607      -16.557436       -1.793301
 H          -7.888214      -15.536312       -0.832190
 H          -7.123407      -19.273214        0.841524
 H          -6.549289      -18.968372       -0.729573
 H          -8.573270      -17.858196       -0.396852
 H          -8.139396      -17.022497        1.114316
