20
 generated by VMD
 C         -58.711021     -168.521301      -54.958012
 N         -57.521820     -168.679123      -54.940132
 H         -62.184120     -168.566879      -55.700565
 H         -59.775410     -168.316772      -54.834576
 C         -62.335205     -167.636047      -56.249786
 C         -62.743179     -167.907852      -57.720364
 C         -62.863800     -166.314651      -55.623604
 C         -64.166611     -167.586685      -58.076355
 C         -64.325920     -166.115173      -55.972031
 C         -64.532532     -166.236542      -57.504921
 H         -62.405636     -168.976700      -58.038490
 H         -62.088699     -167.233170      -58.234951
 H         -62.751945     -166.354935      -54.561398
 H         -62.387302     -165.362122      -56.076187
 H         -64.747559     -168.412155      -57.672184
 H         -64.151588     -167.658615      -59.142811
 H         -64.580544     -165.109909      -55.586952
 H         -65.076088     -166.734100      -55.501038
 H         -65.564331     -166.125458      -57.673496
 H         -64.021904     -165.428436      -57.947929
