20
 generated by VMD
 C         -28.788006      -88.238823      -25.617783
 N         -28.652000      -87.259499      -26.207117
 H         -31.080238      -89.404633      -26.663580
 H         -28.861010      -89.282883      -25.122839
 C         -32.134640      -89.101700      -26.756027
 C         -32.985470      -89.009499      -25.454824
 C         -32.926441      -89.004021      -28.070234
 C         -33.974041      -87.925652      -25.470007
 C         -33.936207      -87.962425      -28.018034
 C         -34.792400      -87.861794      -26.691114
 H         -32.264107      -88.960342      -24.542063
 H         -33.378609      -90.055756      -25.212204
 H         -32.204483      -88.673119      -28.882479
 H         -33.216805      -90.037201      -28.362572
 H         -33.374409      -86.999771      -25.377325
 H         -34.760555      -88.048103      -24.594528
 H         -34.644691      -88.045174      -28.818731
 H         -33.446629      -86.973793      -28.131636
 H         -35.391678      -87.029175      -26.720861
 H         -35.483913      -88.640892      -26.593513
