20
 generated by VMD
 C         -11.426949      -41.998444       -6.201423
 N         -11.015512      -41.231583       -6.906695
 H         -14.568231      -41.054108       -8.451049
 H         -15.454527      -40.202526       -9.634590
 C         -15.312247      -41.233982       -9.232017
 C         -16.540150      -41.903549       -8.607441
 C         -14.584876      -42.211868      -10.158509
 C         -17.463438      -42.447834       -9.716383
 C         -15.464546      -43.027649      -11.179200
 C         -16.772049      -43.521854      -10.585820
 H         -17.081034      -41.157196       -7.941871
 H         -16.158991      -42.769077       -8.005753
 H         -13.769498      -41.712521      -10.730651
 H         -14.120119      -43.044743       -9.561565
 H         -17.862129      -41.701115      -10.377036
 H         -18.290056      -42.858040       -9.131001
 H         -14.919559      -43.919472      -11.617301
 H         -15.626049      -42.422749      -12.031996
 H         -17.493582      -43.881538      -11.327175
 H         -16.531473      -44.406796      -10.040173
