20
 generated by VMD
 C         -40.340706     -107.047173      -37.742405
 N         -39.287212     -106.616318      -37.882275
 H         -38.845322     -107.985840      -34.222828
 H         -41.349365     -107.312241      -37.882099
 C         -39.388123     -108.796227      -33.780087
 C         -38.886993     -110.178398      -33.407509
 C         -40.822880     -108.904655      -34.302803
 C         -39.692234     -110.723671      -32.306183
 C         -41.671780     -109.558884      -33.224041
 C         -41.139652     -110.844856      -32.698734
 H         -37.878502     -110.250374      -33.133991
 H         -39.136982     -110.888313      -34.180500
 H         -41.277298     -107.909042      -34.595913
 H         -40.896255     -109.516281      -35.224625
 H         -39.679363     -110.117508      -31.341396
 H         -39.250950     -111.652435      -31.939796
 H         -42.658745     -109.828789      -33.735043
 H         -41.820847     -108.832260      -32.300091
 H         -41.694164     -111.122047      -31.739199
 H         -41.377834     -111.676331      -33.431690
