20
 generated by VMD
 C         -47.879456     -124.803619      -38.363712
 N         -47.097668     -125.619507      -38.740093
 H         -45.118595     -122.720627      -37.728870
 H         -48.350811     -124.017555      -37.813938
 C         -45.100430     -122.935860      -38.774399
 C         -43.941044     -123.598595      -39.416870
 C         -45.742252     -121.768036      -39.553410
 C         -44.221241     -124.007637      -40.864719
 C         -46.043907     -122.210175      -40.952168
 C         -44.930084     -123.071396      -41.759300
 H         -43.555328     -124.458466      -38.946323
 H         -43.124081     -122.756134      -39.321693
 H         -46.757080     -121.512741      -39.013103
 H         -45.099277     -120.916451      -39.424633
 H         -44.916428     -124.853539      -40.879932
 H         -43.433552     -124.592575      -41.352280
 H         -46.297649     -121.328499      -41.519196
 H         -46.967819     -122.670921      -41.124321
 H         -45.342987     -123.582703      -42.657272
 H         -44.178165     -122.354332      -42.150188
