20
 generated by VMD
 C         -11.988190      -25.641283       -0.246912
 N         -12.998692      -26.097130       -0.237481
 H          -9.583811      -26.766535       -2.858138
 H          -9.318513      -25.799795       -4.251588
 C          -8.807436      -26.229675       -3.391311
 C          -7.713600      -27.147581       -3.922442
 C          -8.163288      -25.069935       -2.616314
 C          -6.826836      -26.418564       -4.851823
 C          -7.162701      -24.335333       -3.527143
 C          -6.178047      -25.241297       -4.153593
 H          -8.135964      -28.006781       -4.516995
 H          -7.215109      -27.409992       -3.047603
 H          -8.967359      -24.405771       -2.255093
 H          -7.542491      -25.477036       -1.797836
 H          -7.407132      -25.944294       -5.630885
 H          -6.108158      -27.093475       -5.278589
 H          -6.724517      -23.493217       -2.991738
 H          -7.760421      -23.834969       -4.319972
 H          -5.473016      -24.740801       -4.856436
 H          -5.485808      -25.612700       -3.353930
