20
 generated by VMD
 C         -73.895317     -200.542908      -65.557350
 N         -72.974670     -201.131577      -65.150116
 H         -73.658180     -198.095337      -66.535896
 H         -74.823181     -200.079468      -65.987694
 C         -73.668556     -197.507248      -67.433144
 C         -74.078491     -196.051956      -67.242737
 C         -73.058159     -197.873840      -68.665771
 C         -73.708504     -195.233719      -68.596230
 C         -73.754402     -197.373291      -69.916161
 C         -74.019081     -195.815491      -69.921448
 H         -73.632683     -195.731918      -66.369469
 H         -75.237663     -195.919571      -67.126793
 H         -72.034248     -197.454636      -68.572693
 H         -72.809669     -198.957199      -68.724091
 H         -72.651909     -195.075073      -68.557999
 H         -74.140938     -194.238312      -68.450272
 H         -74.784294     -197.791321      -69.928085
 H         -73.183716     -197.591492      -70.860672
 H         -73.385956     -195.323807      -70.722855
 H         -75.000450     -195.579117      -70.184914
