20
 generated by VMD
 C         -40.168915     -100.256180      -30.251314
 N         -40.842754     -100.395065      -31.166338
 H         -37.089722     -102.313812      -30.792078
 H         -39.546932     -100.280327      -29.323038
 C         -36.587452     -101.313980      -30.863573
 C         -36.413147     -100.817642      -32.235790
 C         -35.362598     -101.248795      -29.994677
 C         -35.984116      -99.351494      -32.249557
 C         -34.932140      -99.753227      -30.204084
 C         -34.724625      -99.261696      -31.533400
 H         -37.349339     -100.755043      -32.813778
 H         -35.746468     -101.383896      -32.841579
 H         -35.687012     -101.404076      -28.883125
 H         -34.516487     -101.881943      -30.220011
 H         -36.681026      -98.618675      -31.772861
 H         -35.903950      -98.995277      -33.314846
 H         -34.037186      -99.640381      -29.669659
 H         -35.711014      -99.164124      -29.663748
 H         -34.337803      -98.242470      -31.302492
 H         -34.017048      -99.810127      -32.118885
