20
 generated by VMD
 C         -69.766083     -180.416016      -61.494637
 N         -69.193138     -180.843414      -62.390251
 H         -66.972130     -179.942612      -59.314579
 H         -70.397285     -180.004013      -60.725449
 C         -66.285469     -179.265549      -59.702717
 C         -65.425468     -179.558746      -60.908794
 C         -65.823128     -178.134293      -58.878704
 C         -65.300018     -178.237640      -61.753986
 C         -65.771004     -176.899796      -59.713509
 C         -64.715378     -177.018845      -60.822205
 H         -65.870010     -180.257584      -61.616833
 H         -64.410225     -179.884232      -60.646320
 H         -66.544189     -177.988281      -58.075676
 H         -64.894348     -178.520691      -58.427658
 H         -66.239494     -178.058731      -62.321182
 H         -64.625916     -178.506973      -62.591362
 H         -65.393776     -176.032288      -59.150650
 H         -66.794586     -176.757858      -60.109940
 H         -64.584259     -176.173920      -61.534641
 H         -63.736088     -177.394455      -60.598251
