20
 generated by VMD
 C         -30.458376      -74.361267      -20.946198
 N         -30.652723      -75.422585      -20.546406
 H         -27.810438      -74.587997      -19.846188
 H         -30.256119      -73.609680      -21.609222
 C         -26.875748      -74.513786      -20.378073
 C         -26.292437      -75.762711      -21.043909
 C         -25.916758      -73.333199      -20.377211
 C         -25.964617      -75.323608      -22.536907
 C         -25.607891      -72.991570      -21.800285
 C         -25.092991      -74.097916      -22.705290
 H         -27.129145      -76.586128      -21.118998
 H         -25.366238      -76.066750      -20.578484
 H         -26.433722      -72.535034      -19.823412
 H         -24.883980      -73.574989      -19.764692
 H         -26.902695      -75.086037      -23.026880
 H         -25.551958      -76.138390      -23.108147
 H         -25.069183      -72.046783      -21.708200
 H         -26.508696      -72.527496      -22.221067
 H         -25.008644      -73.648117      -23.672421
 H         -24.069397      -74.475861      -22.538031
