20
 generated by VMD
 C         -50.163898     -131.104248      -46.530033
 N         -50.315971     -131.361694      -47.601986
 H         -48.314713     -132.041763      -44.127640
 H         -50.394108     -130.641006      -45.590668
 C         -48.946857     -132.217148      -43.298233
 C         -49.410271     -133.653290      -43.180996
 C         -48.623112     -131.524323      -41.897827
 C         -48.658199     -134.494232      -42.113274
 C         -47.839951     -132.459015      -40.990028
 C         -48.517658     -133.798462      -40.804214
 H         -49.330898     -134.079636      -44.166092
 H         -50.521671     -133.706146      -43.034966
 H         -48.185863     -130.604813      -42.167984
 H         -49.672962     -131.286835      -41.496014
 H         -47.651115     -134.726776      -42.519135
 H         -49.229156     -135.423080      -42.131886
 H         -47.727989     -132.081314      -39.914764
 H         -46.909580     -132.602615      -41.462597
 H         -47.921150     -134.329285      -40.049961
 H         -49.464924     -133.706833      -40.313705
