20
 generated by VMD
 C         -38.323135     -112.736168      -35.967194
 N         -37.573082     -112.198235      -36.701942
 H         -41.203888     -115.010315      -34.800606
 H         -38.928402     -113.223793      -35.253773
 C         -42.086330     -114.638016      -35.449505
 C         -42.016747     -114.482239      -36.910824
 C         -43.086491     -113.803940      -34.734997
 C         -43.387619     -114.882713      -37.405560
 C         -44.429089     -113.994850      -35.385437
 C         -44.422039     -113.873634      -36.883938
 H         -41.324905     -115.277023      -37.246838
 H         -41.816669     -113.419365      -37.139259
 H         -43.063740     -114.069107      -33.674149
 H         -42.977509     -112.748528      -34.823124
 H         -43.664291     -115.897636      -37.186954
 H         -43.282528     -114.764229      -38.495388
 H         -45.209530     -113.289375      -34.963249
 H         -44.984512     -114.939484      -35.003895
 H         -45.421509     -114.162361      -37.191944
 H         -44.339737     -112.753937      -37.062439
