20
 generated by VMD
 C         -50.574013     -127.712059      -40.762695
 N         -51.220230     -128.280701      -41.546795
 H         -47.370815     -127.740608      -41.449768
 H         -49.742092     -127.163986      -40.299236
 C         -46.583839     -127.017769      -41.030396
 C         -45.561954     -127.443130      -40.105663
 C         -46.801991     -125.582077      -41.225273
 C         -44.246742     -126.977936      -40.683487
 C         -45.554142     -125.067566      -41.854500
 C         -44.282028     -125.430527      -40.994175
 H         -45.669716     -128.517166      -40.121700
 H         -45.764191     -126.977219      -39.036991
 H         -47.716846     -125.458420      -41.880226
 H         -46.990776     -125.016541      -40.370705
 H         -44.216530     -127.506088      -41.633743
 H         -43.356983     -127.121826      -40.081963
 H         -45.540012     -124.041145      -42.169064
 H         -45.292362     -125.600159      -42.787373
 H         -43.333347     -125.276756      -41.585728
 H         -44.150253     -124.805496      -40.083214
