20
 generated by VMD
 C         -70.205017     -182.838150      -65.945740
 N         -71.112259     -183.451660      -65.627312
 H         -67.861664     -182.361832      -63.091434
 H         -69.390999     -182.206619      -66.157043
 C         -67.371117     -182.237747      -62.106182
 C         -67.643761     -183.188217      -61.037277
 C         -66.986916     -180.844498      -61.855854
 C         -66.630241     -183.135162      -59.850658
 C         -66.218948     -180.624924      -60.554424
 C         -66.555344     -181.681320      -59.389946
 H         -67.701431     -184.214645      -61.550915
 H         -68.677826     -183.171463      -60.661816
 H         -66.465782     -180.465591      -62.771774
 H         -67.835854     -180.241287      -61.848206
 H         -65.550713     -183.286758      -60.134323
 H         -67.025223     -183.797546      -59.058922
 H         -66.243225     -179.555908      -60.342060
 H         -65.167549     -180.882462      -60.692192
 H         -65.726044     -181.533173      -58.638351
 H         -67.401154     -181.274063      -58.930260
