20
 generated by VMD
 C         -30.833475      -75.838051      -22.488043
 N         -31.165222      -74.770996      -22.881355
 H         -28.782255      -78.432961      -21.605000
 H         -30.473381      -76.772308      -22.240761
 C         -28.012825      -77.692642      -21.709618
 C         -26.770901      -78.165657      -22.441143
 C         -27.611794      -76.696877      -20.598089
 C         -25.972208      -76.914467      -23.112276
 C         -26.803175      -75.435455      -21.160250
 C         -25.630701      -75.876770      -22.059252
 H         -27.171757      -78.791451      -23.253132
 H         -26.063213      -78.541840      -21.718569
 H         -28.596085      -76.378708      -20.123123
 H         -27.159107      -77.152962      -19.780569
 H         -26.739901      -76.567146      -23.807133
 H         -25.098650      -77.216469      -23.739382
 H         -26.302607      -74.849396      -20.376404
 H         -27.539145      -74.820488      -21.697992
 H         -25.493837      -74.941299      -22.587654
 H         -24.745588      -76.160805      -21.471043
