20
 generated by VMD
 C         -10.616125      -36.039822       -8.782424
 N         -10.659600      -36.687965       -7.869455
 H         -13.495127      -37.178387       -7.378331
 H         -14.442637      -38.066269       -6.141927
 C         -13.976482      -38.128529       -7.140306
 C         -13.077266      -39.389282       -7.125022
 C         -15.014095      -38.192635       -8.215276
 C         -13.862221      -40.706432       -7.147891
 C         -15.878340      -39.449562       -8.113324
 C         -14.990480      -40.725544       -8.185911
 H         -12.396430      -39.390850       -6.276443
 H         -12.371681      -39.256657       -7.936973
 H         -15.678020      -37.318462       -8.149693
 H         -14.521923      -38.032093       -9.271928
 H         -14.287804      -40.978836       -6.159201
 H         -13.158280      -41.592167       -7.325900
 H         -16.576857      -39.492489       -8.899623
 H         -16.502928      -39.474628       -7.151976
 H         -15.577997      -41.641247       -8.153686
 H         -14.450201      -40.698231       -9.182191
