20
 generated by VMD
 C         -69.180092     -194.374283      -64.685425
 N         -68.401489     -193.887955      -65.396652
 H         -71.255699     -194.243332      -67.766479
 H         -70.117607     -194.790985      -64.216202
 C         -71.892784     -193.597733      -67.132065
 C         -71.659241     -192.218658      -66.609627
 C         -73.325226     -194.099533      -67.277351
 C         -72.555496     -191.761322      -65.508896
 C         -74.256142     -192.967072      -66.861038
 C         -73.955872     -192.317245      -65.552681
 H         -71.903252     -191.592133      -67.534592
 H         -70.507187     -192.133682      -66.382133
 H         -73.497398     -194.439377      -68.305649
 H         -73.525375     -194.886871      -66.445091
 H         -72.479958     -190.645416      -65.581482
 H         -72.079681     -192.140289      -64.593643
 H         -75.325798     -193.350082      -66.871132
 H         -74.216858     -192.127014      -67.555573
 H         -74.638626     -191.504272      -65.453400
 H         -74.164665     -193.110062      -64.690208
