20
 generated by VMD
 C         -68.732422     -189.045410      -67.161827
 N         -67.687515     -189.346359      -66.820518
 H         -68.975700     -187.704224      -64.064537
 H         -69.753418     -188.863693      -67.575790
 C         -69.628891     -188.145020      -63.358688
 C         -69.852707     -189.578735      -63.459461
 C         -70.570656     -187.263397      -62.770943
 C         -71.160454     -189.698410      -64.268822
 C         -71.698158     -187.211166      -63.748299
 C         -72.259857     -188.679062      -63.889309
 H         -70.033897     -190.124786      -62.464588
 H         -68.921753     -190.025452      -64.043175
 H         -70.833725     -187.472412      -61.732903
 H         -70.036507     -186.214996      -62.599632
 H         -71.585655     -190.738785      -64.132713
 H         -70.934662     -189.489822      -65.283211
 H         -71.406113     -186.603394      -64.610489
 H         -72.468712     -186.489883      -63.320446
 H         -72.498032     -189.097565      -62.852913
 H         -73.227661     -188.665466      -64.543671
