20
 generated by VMD
 C         -68.024162     -185.186142      -67.903481
 N         -67.588455     -185.749176      -66.978012
 H         -69.462608     -185.383789      -64.416092
 H         -68.436295     -184.573380      -68.632156
 C         -69.710655     -185.804398      -63.509903
 C         -70.877052     -185.418030      -62.615440
 C         -68.985382     -187.058304      -63.175686
 C         -70.456459     -185.263718      -61.150604
 C         -68.608238     -187.017197      -61.734062
 C         -69.603119     -186.455704      -60.712948
 H         -71.728203     -186.080368      -62.844505
 H         -71.334381     -184.490601      -62.976131
 H         -69.663033     -187.883331      -63.452061
 H         -68.115585     -187.413513      -63.689274
 H         -71.217003     -185.007965      -60.415123
 H         -69.872261     -184.340820      -61.115837
 H         -67.679596     -186.483856      -61.654659
 H         -68.278641     -188.009918      -61.320362
 H         -70.231148     -187.244751      -60.252766
 H         -68.933777     -186.117493      -59.851841
