20
 generated by VMD
 C         -57.688774     -168.186752      -55.174755
 N         -56.571384     -168.502838      -54.847496
 H         -61.486305     -167.213211      -55.311085
 H         -58.741993     -167.877380      -55.343723
 C         -62.364998     -166.831665      -55.858528
 C         -62.644371     -167.377335      -57.229599
 C         -63.080311     -165.537216      -55.569283
 C         -64.119781     -167.441666      -57.617805
 C         -64.530693     -165.556442      -55.962704
 C         -64.869537     -166.092346      -57.404732
 H         -62.067360     -168.222733      -57.336220
 H         -62.177128     -166.577835      -57.856899
 H         -63.070129     -165.285294      -54.546810
 H         -62.627705     -164.729797      -56.173161
 H         -64.533768     -168.185547      -56.979046
 H         -64.148499     -167.763794      -58.636490
 H         -64.830574     -164.400665      -56.051186
 H         -65.219894     -166.144592      -55.307812
 H         -65.973625     -166.103333      -57.730255
 H         -64.396324     -165.354492      -58.150421
