20
 generated by VMD
 C         -10.607334      -35.876949       -8.743571
 N         -10.597224      -36.714664       -7.976849
 H         -13.260086      -37.312752       -7.156923
 H         -14.513878      -38.031456       -6.210101
 C         -13.976872      -38.166210       -7.141444
 C         -13.085912      -39.350948       -7.058941
 C         -15.044469      -38.209190       -8.200024
 C         -13.874975      -40.673504       -7.142795
 C         -15.848823      -39.463013       -8.060542
 C         -14.954324      -40.639236       -8.205704
 H         -12.662714      -39.285275       -6.049405
 H         -12.318400      -39.420029       -7.839474
 H         -15.695623      -37.326309       -8.052396
 H         -14.556005      -38.208427       -9.266946
 H         -14.337652      -40.806549       -6.122869
 H         -13.138626      -41.485577       -7.417221
 H         -16.599525      -39.446003       -8.815206
 H         -16.375013      -39.462082       -7.067080
 H         -15.564343      -41.542278       -8.110492
 H         -14.524367      -40.666924       -9.254607
