20
 generated by VMD
 C         -26.908733      -71.911507      -17.531179
 N         -27.214272      -73.004784      -17.301756
 H         -24.574116      -69.885818      -18.766752
 H         -26.387838      -70.975830      -17.831903
 C         -24.975002      -70.366203      -19.666077
 C         -24.326803      -71.560120      -20.278473
 C         -25.805799      -69.456017      -20.366560
 C         -25.122696      -72.169144      -21.512396
 C         -26.546501      -70.089073      -21.415365
 C         -25.886494      -71.111526      -22.291470
 H         -24.119844      -72.342087      -19.501032
 H         -23.291927      -71.252579      -20.766172
 H         -26.416323      -69.002586      -19.570248
 H         -25.245928      -68.615532      -20.752541
 H         -25.873377      -72.851784      -21.186810
 H         -24.469978      -72.747704      -22.152842
 H         -26.997602      -69.243904      -22.075474
 H         -27.534775      -70.530640      -20.911058
 H         -26.647610      -71.654648      -22.872520
 H         -25.177319      -70.601387      -22.870588
