20
 generated by VMD
 C         -60.221798     -156.477676      -55.744789
 N         -60.830406     -155.546295      -55.927914
 H         -59.751289     -157.891785      -52.970886
 H         -59.674679     -157.332642      -55.468376
 C         -58.754364     -157.955276      -52.720982
 C         -57.779125     -156.772018      -52.560123
 C         -58.362694     -159.304230      -52.162312
 C         -57.309830     -156.614807      -51.134674
 C         -57.759987     -159.055801      -50.705040
 C         -56.761086     -157.863434      -50.575783
 H         -58.363235     -155.840378      -52.868313
 H         -56.989643     -156.916534      -53.311981
 H         -59.244339     -160.025070      -52.161301
 H         -57.624062     -159.701477      -52.837910
 H         -58.202900     -156.185333      -50.544594
 H         -56.481327     -155.827209      -50.975155
 H         -57.417038     -159.968155      -50.170940
 H         -58.669167     -158.892120      -50.083588
 H         -56.451630     -157.695374      -49.516281
 H         -55.775707     -157.989655      -51.040123
