20
 generated by VMD
 C         -31.359833      -77.614784      -26.095470
 N         -31.702755      -77.998779      -27.136902
 H         -29.285309      -79.115829      -24.102888
 H         -30.932495      -77.233803      -25.127443
 C         -28.934607      -79.750366      -23.311558
 C         -27.503031      -79.693657      -23.046610
 C         -29.861448      -80.646538      -22.651405
 C         -26.957033      -80.562035      -21.924393
 C         -29.277771      -81.458305      -21.533125
 C         -27.771862      -81.741852      -21.631056
 H         -27.314995      -78.657417      -22.945900
 H         -27.001036      -80.096558      -23.844839
 H         -30.737350      -79.914864      -22.345951
 H         -30.278868      -81.358681      -23.304707
 H         -26.869738      -80.023048      -20.970720
 H         -25.944912      -80.758636      -22.191235
 H         -29.893442      -82.373589      -21.588335
 H         -29.641464      -81.044502      -20.467588
 H         -27.365606      -82.178871      -20.774906
 H         -27.692362      -82.578804      -22.312012
