20
 generated by VMD
 C          -2.034193      -17.764761        2.144775
 N          -1.647354      -17.058809        2.921418
 H          -5.370202      -17.707479        1.024459
 H          -5.078312      -18.706945       -0.435061
 C          -5.838840      -18.096174        0.090964
 C          -6.120044      -16.982580       -0.979538
 C          -7.045421      -18.903435        0.526301
 C          -6.809387      -17.701132       -2.108295
 C          -7.829912      -19.475855       -0.633699
 C          -8.154116      -18.368551       -1.663896
 H          -5.222355      -16.553589       -1.336236
 H          -6.727211      -16.221640       -0.439085
 H          -6.681922      -19.748528        1.098187
 H          -7.701510      -18.191324        0.990110
 H          -6.179831      -18.518995       -2.413634
 H          -7.040495      -16.976910       -2.924365
 H          -8.735480      -19.948833       -0.211698
 H          -7.212954      -20.245619       -1.220827
 H          -8.654053      -18.884192       -2.523055
 H          -8.836610      -17.616798       -1.271608
