20
 generated by VMD
 C         -41.560188     -102.375259      -35.716255
 N         -41.487171     -103.527367      -35.823704
 H         -39.517677     -104.538910      -33.265549
 H         -41.356697     -101.348015      -35.678074
 C         -38.681908     -104.968048      -32.701672
 C         -37.220139     -104.731087      -32.889309
 C         -38.840458     -106.445625      -32.255764
 C         -36.467148     -104.835564      -31.586727
 C         -38.208454     -106.585403      -30.931479
 C         -36.665630     -106.235512      -30.938593
 H         -37.210968     -103.749603      -33.340084
 H         -36.875309     -105.453133      -33.719944
 H         -39.863674     -106.803551      -32.372528
 H         -38.292149     -106.983597      -33.046570
 H         -36.798370     -103.962074      -30.914394
 H         -35.359276     -104.643486      -31.645357
 H         -38.328259     -107.500420      -30.389936
 H         -38.789970     -105.774483      -30.315104
 H         -36.283619     -106.282570      -29.935097
 H         -36.173027     -107.107086      -31.464563
