20
 generated by VMD
 C         -59.767559     -157.184189      -56.956642
 N         -60.897171     -156.830917      -56.866631
 H         -59.834007     -157.376816      -52.964096
 H         -58.722626     -157.554169      -56.924358
 C         -59.157272     -157.882324      -52.382015
 C         -57.925037     -157.189774      -52.017731
 C         -59.226669     -159.325607      -52.545147
 C         -57.270508     -157.925735      -50.809925
 C         -58.640717     -159.888916      -51.268036
 C         -57.188610     -159.418304      -50.909576
 H         -58.119690     -156.049362      -51.800011
 H         -57.440941     -157.237320      -53.052540
 H         -60.284061     -159.670166      -52.560192
 H         -58.748234     -159.572601      -53.547504
 H         -57.988789     -157.806442      -49.876587
 H         -56.259094     -157.522522      -50.600582
 H         -58.625484     -160.981186      -51.511215
 H         -59.464085     -159.684189      -50.480152
 H         -56.806030     -160.009598      -50.057922
 H         -56.475559     -159.668076      -51.779137
