20
 generated by VMD
 C         -44.904377     -122.604645      -35.447701
 N         -45.234550     -123.580544      -34.988827
 H         -45.146915     -122.839249      -39.225937
 H         -44.850239     -121.626472      -35.996548
 C         -44.889530     -121.786461      -39.538574
 C         -43.489483     -121.431877      -39.559380
 C         -46.015400     -120.719467      -39.513115
 C         -43.318981     -120.429291      -40.766731
 C         -45.784809     -119.844040      -40.763882
 C         -44.319561     -119.321548      -40.840649
 H         -42.862789     -122.336609      -39.579552
 H         -43.023785     -120.891281      -38.709198
 H         -46.973797     -121.169014      -39.604004
 H         -45.945278     -120.231903      -38.544609
 H         -43.343224     -121.033539      -41.684216
 H         -42.233810     -120.101753      -40.753319
 H         -46.493950     -119.018829      -40.596161
 H         -46.163342     -120.502708      -41.684772
 H         -44.247334     -118.756470      -41.734154
 H         -44.193638     -118.657837      -40.056053
