20
 generated by VMD
 C         -27.476021      -84.588249      -26.282864
 N         -28.027550      -85.312881      -26.961365
 H         -31.377417      -84.559364      -25.980946
 H         -27.036205      -83.814072      -25.615496
 C         -31.936647      -85.468407      -25.847292
 C         -32.145779      -85.928215      -24.374044
 C         -32.183109      -86.583679      -26.901602
 C         -33.412174      -86.785347      -24.188339
 C         -33.336948      -87.403687      -26.529434
 C         -33.538849      -87.906830      -25.148664
 H         -32.317753      -85.102928      -23.717039
 H         -31.384655      -86.460777      -23.963686
 H         -32.355556      -86.077385      -27.821011
 H         -31.191484      -87.071762      -27.050486
 H         -34.285728      -86.167770      -24.164766
 H         -33.436768      -87.311150      -23.198431
 H         -33.411526      -88.346611      -27.157993
 H         -34.178032      -86.822525      -26.871635
 H         -34.543465      -88.359100      -25.087301
 H         -32.829834      -88.789421      -25.020273
