20
 generated by VMD
 C         -20.127319      -56.094688      -16.698431
 N         -21.216928      -56.354660      -16.704004
 H         -22.192072      -59.349270      -17.317711
 H         -19.051174      -55.966488      -17.127447
 C         -22.370255      -59.901924      -16.439442
 C         -22.463465      -59.216362      -15.068259
 C         -22.018728      -61.426292      -16.486540
 C         -21.495455      -59.771618      -14.064612
 C         -20.689096      -61.648067      -15.646683
 C         -20.957888      -61.172081      -14.183456
 H         -23.502359      -59.501312      -14.773520
 H         -22.318846      -58.087692      -15.059181
 H         -22.850662      -61.962166      -16.094250
 H         -21.879879      -61.699043      -17.523586
 H         -21.787367      -59.512173      -13.069283
 H         -20.575367      -59.188110      -14.219656
 H         -20.011158      -60.876369      -16.063652
 H         -20.428377      -62.707836      -15.783282
 H         -21.728218      -61.769943      -13.726905
 H         -20.095373      -61.280525      -13.455950
