20
 generated by VMD
 C         -67.902206     -178.218140      -57.897968
 N         -67.033958     -178.614426      -57.223927
 H         -65.034981     -176.188568      -58.719704
 H         -68.738663     -177.995224      -58.583488
 C         -64.837021     -175.609070      -59.586281
 C         -65.908737     -174.606415      -59.806583
 C         -63.367733     -175.368744      -60.167404
 C         -65.429993     -173.177368      -59.784264
 C         -62.955952     -173.834229      -59.955730
 C         -64.076950     -172.877701      -60.458775
 H         -66.657883     -174.580994      -58.923168
 H         -66.385635     -174.881271      -60.708305
 H         -62.753838     -176.036697      -59.479439
 H         -63.250675     -175.895279      -61.086662
 H         -65.257919     -172.759903      -58.724121
 H         -66.175644     -172.565048      -60.413277
 H         -62.151691     -173.731796      -60.626621
 H         -62.737995     -173.320419      -59.007645
 H         -63.856178     -171.772903      -60.321068
 H         -64.235725     -172.976959      -61.578510
