20
 generated by VMD
 C         -12.520720      -30.252394       -8.039598
 N         -13.351046      -30.260754       -7.291807
 H         -11.191077      -30.135553       -4.998766
 H         -10.510284      -30.771559       -3.634665
 C         -10.840529      -31.136898       -4.589621
 C          -9.663338      -31.723856       -5.360063
 C         -11.905508      -32.266762       -4.441997
 C          -8.958899      -32.866047       -4.729341
 C         -11.230083      -33.461555       -3.728889
 C         -10.008482      -33.948200       -4.460868
 H          -8.944733      -30.968929       -5.524906
 H         -10.168154      -31.999670       -6.342333
 H         -12.824459      -32.003239       -3.932743
 H         -12.204118      -32.541451       -5.453763
 H          -8.572214      -32.600365       -3.751992
 H          -8.142972      -33.230915       -5.337016
 H         -11.863371      -34.404873       -3.570771
 H         -10.900808      -33.113403       -2.774627
 H          -9.576178      -34.795135       -3.912381
 H         -10.320635      -34.425644       -5.343146
