20
 generated by VMD
 C         -38.286057     -112.778084      -35.988445
 N         -37.538349     -112.216255      -36.692181
 H         -41.169891     -115.104668      -34.931255
 H         -39.125771     -113.005096      -35.394577
 C         -42.125546     -114.694290      -35.407684
 C         -42.001499     -114.515106      -36.885113
 C         -43.111618     -113.778786      -34.726826
 C         -43.382202     -114.846153      -37.439568
 C         -44.533714     -114.027153      -35.404472
 C         -44.476818     -113.890724      -36.880951
 H         -41.259041     -115.050621      -37.462814
 H         -41.713825     -113.565285      -37.226257
 H         -43.237759     -114.191292      -33.705921
 H         -42.579048     -112.836777      -34.687450
 H         -43.522118     -115.857094      -37.050911
 H         -43.474689     -114.994164      -38.511585
 H         -45.288689     -113.342972      -35.001030
 H         -44.578754     -115.109383      -35.279816
 H         -45.383255     -114.156326      -37.314114
 H         -44.221695     -112.879318      -37.295856
