20
 generated by VMD
 C          -9.953368      -24.528873       -0.120906
 N         -10.811051      -25.024654       -0.636425
 H          -6.364202      -25.065182       -0.869411
 H          -8.078908      -24.968597       -1.148374
 C          -7.068633      -24.787298       -1.665398
 C          -7.038076      -25.716648       -2.847278
 C          -6.953525      -23.279604       -2.048905
 C          -7.906300      -25.282562       -3.974489
 C          -7.875854      -22.809204       -3.197865
 C          -7.850362      -23.811123       -4.385261
 H          -7.323809      -26.682505       -2.498827
 H          -6.039261      -25.688740       -3.299281
 H          -7.057582      -22.545927       -1.181255
 H          -5.954574      -23.234497       -2.453767
 H          -8.947973      -25.405161       -3.602309
 H          -7.648700      -25.892946       -4.840143
 H          -7.695778      -21.766829       -3.489836
 H          -8.899197      -22.789434       -2.782710
 H          -8.652858      -23.472431       -5.140110
 H          -6.938056      -23.672722       -4.953344
