20
 generated by VMD
 C         -24.173801      -69.881966      -16.641464
 N         -24.473154      -70.259598      -15.585432
 H         -23.901655      -67.155243      -18.829916
 H         -24.125731      -69.528290      -17.721888
 C         -24.291834      -67.935410      -19.431126
 C         -23.819681      -68.535263      -20.724802
 C         -25.816809      -67.689140      -19.444241
 C         -24.709742      -69.741859      -20.966419
 C         -26.638306      -68.896721      -19.884428
 C         -26.206076      -69.583450      -21.187582
 H         -22.778362      -68.857391      -20.831249
 H         -23.941462      -67.754936      -21.586372
 H         -26.022291      -67.166214      -18.454353
 H         -25.972244      -66.879593      -20.214972
 H         -24.551598      -70.483025      -20.124678
 H         -24.492155      -70.223595      -21.913479
 H         -27.690460      -68.697014      -19.826042
 H         -26.600075      -69.593964      -19.071674
 H         -26.626106      -70.597717      -21.241348
 H         -26.510326      -68.987221      -22.072014
