20
 generated by VMD
 C         -73.672760     -200.294571      -65.715904
 N         -73.456566     -201.055191      -64.868103
 H         -72.222763     -197.331100      -66.672592
 H         -73.842651     -199.666809      -66.569000
 C         -72.626244     -196.798599      -67.559242
 C         -73.555328     -195.704193      -67.237282
 C         -72.477577     -197.340546      -68.912857
 C         -74.141441     -195.030792      -68.398132
 C         -73.839844     -197.384903      -69.567230
 C         -74.599518     -196.044662      -69.533829
 H         -72.981689     -195.005264      -66.656250
 H         -74.425400     -196.139435      -66.663948
 H         -71.828011     -196.754898      -69.545494
 H         -72.147400     -198.347992      -68.925095
 H         -73.370728     -194.389908      -68.834366
 H         -74.983574     -194.322235      -68.158432
 H         -74.509010     -198.126984      -69.085274
 H         -73.733299     -197.725266      -70.566208
 H         -74.656441     -195.359680      -70.534706
 H         -75.665283     -196.284256      -69.192253
