20
 generated by VMD
 C         -54.682251     -148.306152      -45.233517
 N         -54.485142     -148.475830      -44.085831
 H         -54.984764     -148.050888      -49.098141
 H         -54.686905     -148.030609      -46.300892
 C         -54.487392     -147.087662      -49.311008
 C         -53.155827     -146.771225      -50.085209
 C         -55.095417     -145.960464      -48.409561
 C         -53.243767     -145.485809      -50.907070
 C         -55.145168     -144.655807      -49.354176
 C         -53.817928     -144.343750      -50.083454
 H         -52.773720     -147.564072      -50.696266
 H         -52.424721     -146.545044      -49.260357
 H         -56.013157     -146.226547      -47.897415
 H         -54.291317     -145.817871      -47.640747
 H         -53.956219     -145.730820      -51.715469
 H         -52.341454     -145.198776      -51.440392
 H         -55.328186     -143.740738      -48.698124
 H         -55.953976     -144.678268      -50.141624
 H         -53.746048     -143.287994      -50.593220
 H         -52.983406     -144.078781      -49.314125
