20
 generated by VMD
 C         -40.338940     -100.168732      -30.075336
 N         -41.408543     -100.564209      -30.392166
 H         -37.017479     -101.666359      -30.478304
 H         -39.323112     -100.094986      -29.902296
 C         -36.545601     -100.799339      -30.779808
 C         -36.278755     -100.323418      -32.205814
 C         -35.368492     -100.771088      -29.966656
 C         -35.472462      -99.125084      -32.481979
 C         -34.609783      -99.414505      -30.055857
 C         -34.213943      -98.936882      -31.604986
 H         -37.205013     -100.130463      -32.726112
 H         -35.760868     -101.162094      -32.750736
 H         -35.690357     -100.923561      -28.949211
 H         -34.629520     -101.598946      -30.272408
 H         -36.092083      -98.155083      -32.562241
 H         -35.028595      -99.215553      -33.460609
 H         -33.659134      -99.472618      -29.522224
 H         -35.320560      -98.580994      -29.714296
 H         -33.922306      -97.885315      -31.433228
 H         -33.423012      -99.619164      -31.925753
