20
 generated by VMD
 C         -30.209648      -92.809441      -25.136339
 N         -30.452888      -93.752670      -25.823040
 H         -33.326107      -91.094940      -26.433228
 H         -30.038174      -92.067490      -24.445818
 C         -33.840950      -91.337120      -27.375326
 C         -35.123669      -92.198372      -27.574703
 C         -33.174934      -90.658699      -28.586399
 C         -36.076805      -91.639549      -28.570986
 C         -34.257515      -90.068710      -29.504332
 C         -35.340683      -91.097382      -29.744396
 H         -35.409664      -92.244019      -26.426622
 H         -34.855179      -93.240883      -27.892063
 H         -32.457470      -89.846451      -28.339287
 H         -32.685654      -91.532822      -29.058134
 H         -36.651524      -90.795776      -28.121941
 H         -36.816154      -92.385384      -28.893515
 H         -33.976074      -89.659302      -30.466619
 H         -34.802361      -89.230225      -28.972115
 H         -35.828247      -90.674629      -30.654049
 H         -34.809090      -91.986618      -30.136581
