20
 generated by VMD
 C         -59.432102     -169.077820      -55.849827
 N         -59.599022     -168.603256      -54.769695
 H         -62.416840     -169.956696      -56.256874
 H         -59.321777     -169.667953      -56.764324
 C         -63.064686     -169.107559      -56.522110
 C         -62.785622     -168.845810      -58.007633
 C         -63.244747     -167.861038      -55.555367
 C         -63.644016     -167.591583      -58.502026
 C         -64.058426     -166.837769      -56.228909
 C         -63.600315     -166.390427      -57.585278
 H         -63.022572     -169.613159      -58.654041
 H         -61.630310     -168.583023      -58.079990
 H         -63.617737     -168.285446      -54.621700
 H         -62.262398     -167.503433      -55.393414
 H         -64.676773     -167.938385      -58.480865
 H         -63.406658     -167.183578      -59.474892
 H         -64.227577     -165.896286      -55.551544
 H         -65.114418     -167.237259      -56.534279
 H         -64.190308     -165.603149      -57.935154
 H         -62.581127     -166.088867      -57.399845
