20
 generated by VMD
 C         -48.276657     -136.155777      -46.118053
 N         -47.096733     -136.116745      -46.022041
 H         -51.634998     -135.077240      -45.932278
 H         -49.407181     -136.174240      -46.116112
 C         -51.594261     -136.085342      -45.399326
 C         -52.196915     -137.322174      -46.034000
 C         -51.512779     -136.057571      -43.918232
 C         -51.963505     -138.662766      -45.276222
 C         -51.172855     -137.350967      -43.212315
 C         -51.896812     -138.627747      -43.764866
 H         -51.987808     -137.535980      -47.034637
 H         -53.325294     -137.108704      -46.042568
 H         -50.593170     -135.405319      -43.657600
 H         -52.359776     -135.525818      -43.414276
 H         -50.939705     -138.935577      -45.500492
 H         -52.685188     -139.380783      -45.740364
 H         -51.304035     -137.296204      -42.182022
 H         -50.057812     -137.459946      -43.403915
 H         -51.512386     -139.618484      -43.382942
 H         -52.885792     -138.684418      -43.406639
