20
 generated by VMD
 C         -12.042085      -42.772980       -7.140207
 N         -12.456734      -42.124481       -6.309931
 H         -14.948520      -43.760681       -8.169805
 H         -14.549786      -42.277779       -9.097114
 C         -15.191152      -43.215820       -9.103510
 C         -16.702234      -43.000584       -9.027454
 C         -14.805840      -44.057583      -10.373538
 C         -17.334396      -42.466492      -10.313270
 C         -15.631759      -43.686138      -11.643498
 C         -17.150948      -43.451256      -11.478126
 H         -16.928453      -42.312962       -8.204222
 H         -17.110668      -43.958336       -8.802691
 H         -13.673169      -44.007999      -10.582320
 H         -15.165812      -45.060276      -10.092002
 H         -16.889338      -41.487076      -10.501020
 H         -18.418930      -42.422081      -10.196724
 H         -15.436342      -44.459221      -12.395659
 H         -15.233284      -42.773643      -12.105841
 H         -17.675104      -43.094265      -12.411013
 H         -17.624111      -44.445568      -11.277359
