20
 generated by VMD
 C         -50.579720     -145.049713      -44.989223
 N         -50.726303     -145.859329      -44.177441
 H         -53.685089     -144.510193      -46.623665
 H         -50.467560     -144.340439      -45.829052
 C         -53.535278     -143.506424      -47.051785
 C         -52.617733     -143.362244      -48.154724
 C         -54.719501     -142.485992      -47.042931
 C         -53.295918     -143.509567      -49.583855
 C         -55.454624     -142.613998      -48.347267
 C         -54.531719     -142.421204      -49.643776
 H         -51.829750     -144.129852      -48.117725
 H         -52.006512     -142.416763      -48.058514
 H         -55.411224     -142.794983      -46.185963
 H         -54.323666     -141.317642      -46.964592
 H         -53.740368     -144.480225      -49.657684
 H         -52.676914     -143.263870      -50.457935
 H         -56.322113     -141.990738      -48.320484
 H         -55.997108     -143.545059      -48.587383
 H         -55.133873     -142.662506      -50.606144
 H         -54.009663     -141.467285      -49.921818
