20
 generated by VMD
 C         -76.325729     -202.936218      -66.540688
 N         -77.079132     -203.303543      -65.736275
 H         -75.703125     -200.324173      -69.143349
 H         -75.501778     -202.498917      -67.161682
 C         -74.765732     -199.797501      -68.953125
 C         -74.847603     -198.297150      -68.511711
 C         -73.712997     -200.204788      -69.929611
 C         -73.425964     -197.684799      -68.626259
 C         -73.177826     -199.194366      -70.857681
 C         -72.767761     -197.912048      -70.043648
 H         -75.247169     -198.191208      -67.493973
 H         -75.568138     -197.717606      -69.263496
 H         -72.812500     -200.677933      -69.418694
 H         -74.181885     -201.146744      -70.387062
 H         -72.850143     -198.372269      -67.981491
 H         -73.407990     -196.676239      -68.310020
 H         -74.021210     -198.855957      -71.576454
 H         -72.313179     -199.513260      -71.453209
 H         -71.753967     -197.820877      -69.826378
 H         -73.091202     -196.999466      -70.733788
