20
 generated by VMD
 C         -38.919498     -109.791946      -36.015530
 N         -37.957188     -109.183701      -36.109436
 H         -42.078995     -110.500450      -37.048153
 H         -39.864735     -110.403419      -35.786907
 C         -41.865387     -110.832870      -36.071011
 C         -41.785358     -112.310181      -36.135532
 C         -42.294575     -110.250710      -34.888306
 C         -40.961838     -112.816811      -34.903866
 C         -41.735531     -110.833649      -33.521141
 C         -41.613224     -112.391655      -33.616932
 H         -41.214031     -112.609833      -37.006016
 H         -42.842663     -112.688980      -36.066738
 H         -42.241428     -109.118729      -34.823608
 H         -43.398815     -110.350311      -34.747597
 H         -39.869957     -112.486153      -35.010761
 H         -40.929253     -113.938805      -34.907719
 H         -42.254677     -110.396523      -32.637295
 H         -40.737850     -110.375900      -33.419945
 H         -41.013115     -112.684113      -32.768513
 H         -42.648643     -112.980118      -33.361317
