20
 generated by VMD
 C         -70.223160     -196.684738      -65.298370
 N         -69.435791     -197.168976      -66.013054
 H         -74.027992     -195.656860      -65.122673
 H         -70.801582     -196.103699      -64.601753
 C         -73.995987     -195.138779      -66.060600
 C         -73.032227     -193.966110      -65.956039
 C         -74.505150     -195.819855      -67.269394
 C         -72.400894     -193.726517      -67.323967
 C         -74.436707     -194.920105      -68.521164
 C         -73.399994     -193.694763      -68.457329
 H         -72.064972     -194.313477      -65.334076
 H         -73.588890     -193.129181      -65.556107
 H         -73.919945     -196.671097      -67.498055
 H         -75.453789     -196.287079      -67.223549
 H         -71.648010     -194.541977      -67.527161
 H         -71.859749     -192.751053      -67.271835
 H         -75.387817     -194.465866      -68.699409
 H         -74.185280     -195.605087      -69.404106
 H         -72.848351     -193.673553      -69.331879
 H         -73.912437     -192.650726      -68.466522
