20
 generated by VMD
 C         -11.935247      -39.567272       -6.886889
 N         -10.877567      -39.530750       -6.569880
 H         -13.021306      -41.001133       -9.116812
 H         -14.260944      -39.846642       -8.974402
 C         -14.094719      -40.926785       -9.113813
 C         -14.746609      -41.761593       -8.046762
 C         -14.590505      -41.293404      -10.504299
 C         -16.258018      -41.804665       -8.138679
 C         -16.084450      -41.411922      -10.587331
 C         -16.745953      -42.237217       -9.511168
 H         -14.398832      -41.377293       -7.090313
 H         -14.429028      -42.835651       -8.153790
 H         -14.330453      -40.555492      -11.241142
 H         -14.164603      -42.328491      -10.773619
 H         -16.681934      -40.800842       -7.976087
 H         -16.607246      -42.508053       -7.380308
 H         -16.308928      -41.943382      -11.597479
 H         -16.553831      -40.476685      -10.684204
 H         -17.796698      -42.162529       -9.553676
 H         -16.485313      -43.272942       -9.692307
