20
 generated by VMD
 C          -1.812354      -13.815601        1.031156
 N          -1.791801      -12.837597        1.571973
 H          -3.735681      -17.211018        1.591311
 H          -4.056355      -16.992603       -0.136847
 C          -4.520323      -17.052853        0.866323
 C          -5.137717      -15.683004        1.217424
 C          -5.568763      -18.210197        0.950027
 C          -6.375211      -15.386452        0.305912
 C          -6.703113      -17.850845        0.044991
 C          -7.332063      -16.527758        0.363469
 H          -4.362623      -14.861488        1.056601
 H          -5.431849      -15.540370        2.254957
 H          -5.134647      -19.068645        0.567003
 H          -5.849324      -18.248165        1.968629
 H          -5.927483      -15.368119       -0.630264
 H          -6.816360      -14.422124        0.492179
 H          -7.460121      -18.603451       -0.001591
 H          -6.221929      -17.761602       -0.929819
 H          -8.217633      -16.425026       -0.267978
 H          -7.712343      -16.616577        1.396320
