20
 generated by VMD
 C         -20.239019      -52.233791       -9.820435
 N         -21.127436      -51.556602      -10.267088
 H         -18.269285      -49.439507      -10.683352
 H         -19.750038      -52.950184       -9.235603
 C         -17.685471      -49.445229      -11.635262
 C         -16.883263      -50.689240      -11.871862
 C         -17.322105      -48.127220      -12.242083
 C         -16.911150      -50.943588      -13.346134
 C         -16.873034      -48.400055      -13.637767
 C         -16.200096      -49.776104      -14.001106
 H         -17.239180      -51.511513      -11.280698
 H         -15.898008      -50.418217      -11.487457
 H         -18.206322      -47.426735      -12.214231
 H         -16.526443      -47.629211      -11.678329
 H         -17.972027      -50.836750      -13.623334
 H         -16.521942      -51.949432      -13.645816
 H         -16.170124      -47.522953      -13.904069
 H         -17.785820      -48.408756      -14.298597
 H         -16.224096      -49.928291      -15.091778
 H         -15.153805      -49.822762      -13.716922
