20
 generated by VMD
 C         -11.573531      -41.885971       -6.111536
 N         -10.898737      -41.451931       -6.891406
 H         -14.577962      -41.241875       -8.422054
 H         -15.368248      -40.485039       -9.752334
 C         -15.305139      -41.526409       -9.233864
 C         -16.665434      -41.931343       -8.723689
 C         -14.538954      -42.500137      -10.198215
 C         -17.547419      -42.492985       -9.808529
 C         -15.551073      -42.911903      -11.261615
 C         -16.759953      -43.566566      -10.593579
 H         -17.189419      -41.123783       -8.207458
 H         -16.475489      -42.805893       -8.059215
 H         -13.713120      -42.051483      -10.686153
 H         -14.277145      -43.386700       -9.594090
 H         -17.777494      -41.609016      -10.378891
 H         -18.431053      -42.972271       -9.377280
 H         -15.001174      -43.599617      -11.992825
 H         -15.844414      -42.090157      -11.898252
 H         -17.388439      -44.057167      -11.342498
 H         -16.503138      -44.418888       -9.911016
