20
 generated by VMD
 C         -19.078789      -63.162750      -16.887903
 N         -20.197041      -62.862061      -16.986979
 H         -22.705965      -63.802849      -17.023249
 H         -18.106625      -63.421139      -17.094101
 C         -23.697058      -64.282562      -17.302088
 C         -24.264454      -64.089310      -18.688570
 C         -24.517624      -65.131866      -16.307816
 C         -24.586008      -65.497543      -19.338369
 C         -24.968586      -66.387848      -16.999660
 C         -25.585081      -66.222137      -18.428528
 H         -23.681835      -63.491264      -19.341776
 H         -25.196646      -63.536819      -18.666328
 H         -23.822308      -65.326607      -15.481952
 H         -25.521963      -64.565300      -16.016045
 H         -23.763462      -66.141190      -19.587389
 H         -25.078402      -65.349533      -20.330742
 H         -25.726357      -66.939919      -16.490961
 H         -24.087301      -67.031418      -17.046661
 H         -26.055164      -67.096840      -18.773655
 H         -26.418165      -65.492760      -18.221945
