20
 generated by VMD
 C         -64.900749     -175.495331      -55.809910
 N         -64.267654     -176.299194      -56.405998
 H         -65.024712     -174.382401      -58.783401
 H         -65.506607     -174.741272      -55.334095
 C         -64.743561     -173.343384      -59.031418
 C         -65.348778     -172.322235      -58.296402
 C         -64.020554     -173.218063      -60.234608
 C         -64.552208     -170.998032      -58.391617
 C         -63.046429     -172.122849      -60.196678
 C         -63.882023     -170.890640      -59.866360
 H         -65.424538     -172.475525      -57.159615
 H         -66.368607     -172.087051      -58.529221
 H         -63.621437     -174.180817      -60.457764
 H         -64.650902     -173.124420      -61.100758
 H         -63.744576     -170.995255      -57.648369
 H         -65.266479     -170.173615      -58.188934
 H         -62.489681     -172.081039      -61.177700
 H         -62.265457     -172.129257      -59.474644
 H         -63.272526     -169.925949      -59.925755
 H         -64.745239     -170.785477      -60.536301
