20
 generated by VMD
 C         -46.595032     -124.490692      -36.729130
 N         -46.982185     -125.115639      -35.808403
 H         -44.443104     -122.165825      -37.975113
 H         -46.164028     -124.038460      -37.657970
 C         -44.643158     -121.978127      -39.034588
 C         -43.347389     -121.805901      -39.706749
 C         -45.757511     -121.052887      -39.539986
 C         -43.520039     -122.064621      -41.175995
 C         -46.004402     -121.272514      -41.018909
 C         -44.709553     -121.209007      -41.875072
 H         -42.664070     -122.495064      -39.235729
 H         -42.664288     -120.842239      -39.575356
 H         -46.655521     -121.445282      -38.981453
 H         -45.594212     -119.970222      -39.299538
 H         -43.534794     -123.075081      -41.418663
 H         -42.604668     -121.768097      -41.654392
 H         -46.690514     -120.462006      -41.354809
 H         -46.500591     -122.184090      -41.042976
 H         -44.981216     -121.780167      -42.792542
 H         -44.494217     -120.135193      -42.067680
