20
 generated by VMD
 C         -18.349953      -48.786987       -7.150695
 N         -19.064871      -49.646553       -7.180694
 H         -16.079851      -47.623676      -10.068544
 H         -16.291313      -49.008675      -11.102622
 C         -16.288780      -47.893898      -11.121689
 C         -15.170267      -47.375355      -12.049082
 C         -17.617283      -47.396950      -11.586808
 C         -15.368369      -47.682632      -13.523765
 C         -17.912743      -47.555473      -13.069491
 C         -16.731470      -47.130981      -13.980618
 H         -14.187490      -47.782276      -11.714575
 H         -15.022340      -46.289555      -11.868797
 H         -18.373201      -47.920216      -11.032782
 H         -17.752151      -46.367657      -11.310400
 H         -15.440961      -48.767197      -13.681273
 H         -14.534431      -47.231983      -14.067553
 H         -18.701975      -46.816700      -13.371328
 H         -18.281504      -48.483997      -13.316209
 H         -16.910114      -47.439461      -15.039394
 H         -16.706539      -45.985569      -13.978808
