20
 generated by VMD
 C         -60.982155     -156.011047      -54.432846
 N         -60.718891     -156.175232      -55.589802
 H         -59.316502     -156.097961      -50.838097
 H         -61.113949     -156.009735      -53.320675
 C         -58.391644     -155.835190      -51.319618
 C         -57.522095     -154.724930      -50.664509
 C         -57.742779     -156.671371      -52.403297
 C         -56.271542     -155.332504      -50.037399
 C         -56.405937     -157.299072      -51.705536
 C         -55.520786     -156.193924      -51.004108
 H         -58.150593     -154.220444      -49.925819
 H         -57.164703     -153.994354      -51.425430
 H         -58.430958     -157.472595      -52.709599
 H         -57.437786     -156.094421      -53.215397
 H         -56.478680     -155.854752      -49.182701
 H         -55.665096     -154.482407      -49.640465
 H         -55.940758     -157.991470      -52.406410
 H         -56.749786     -157.965042      -50.934551
 H         -54.718437     -156.547058      -50.456722
 H         -55.050941     -155.486786      -51.768288
