20
 generated by VMD
 C          -6.891514      -23.308659        2.781317
 N          -6.968352      -22.561802        1.974895
 H          -8.258498      -22.964565       -0.692514
 H          -9.042229      -22.366295       -2.128097
 C          -8.106288      -22.395123       -1.635757
 C          -7.196326      -23.142218       -2.590075
 C          -7.570109      -20.975452       -1.418873
 C          -7.011121      -22.282560       -3.897701
 C          -7.393297      -20.174980       -2.679232
 C          -6.579271      -20.855686       -3.677502
 H          -7.601351      -24.083452       -2.818928
 H          -6.147682      -23.163561       -2.190409
 H          -8.134338      -20.427660       -0.675573
 H          -6.602158      -21.123894       -0.898213
 H          -7.942247      -22.268785       -4.434330
 H          -6.286243      -22.802464       -4.494960
 H          -7.010972      -19.207052       -2.402741
 H          -8.365195      -19.941526       -3.091148
 H          -6.681849      -20.343792       -4.597220
 H          -5.543705      -20.867357       -3.417380
