20
 generated by VMD
 C         -29.336361      -90.540222      -24.972023
 N         -28.984325      -91.650078      -25.159687
 H         -32.099121      -91.411583      -27.580236
 H         -29.692413      -89.504128      -24.916166
 C         -33.051949      -90.930984      -27.850149
 C         -34.444244      -91.478958      -27.472008
 C         -33.018589      -89.555344      -28.566330
 C         -35.611942      -90.590027      -27.352989
 C         -34.344753      -88.796143      -28.541636
 C         -35.645580      -89.609245      -28.493196
 H         -34.382614      -92.189133      -26.612120
 H         -34.681831      -92.206352      -28.380123
 H         -32.213528      -88.937569      -28.187086
 H         -32.688984      -89.799515      -29.573126
 H         -35.534237      -89.818161      -26.607136
 H         -36.526463      -91.078239      -27.257280
 H         -34.311474      -87.972076      -29.246893
 H         -34.178158      -88.262810      -27.581964
 H         -36.441360      -88.893333      -28.487654
 H         -35.984932      -90.161621      -29.372816
