20
 generated by VMD
 C         -12.533738      -27.687639       -4.642241
 N         -13.151942      -27.933517       -5.548970
 H         -11.008406      -30.663973       -2.803208
 H         -11.031777      -29.332909       -3.807306
 C         -10.301641      -30.007551       -3.396173
 C          -9.623810      -30.683821       -4.579091
 C          -9.294130      -29.326496       -2.419585
 C          -8.723589      -29.664236       -5.349071
 C          -8.417245      -28.348204       -3.131101
 C          -7.698843      -28.900515       -4.379766
 H         -10.353106      -31.129841       -5.301360
 H          -9.091532      -31.614946       -4.220212
 H          -9.874591      -28.764278       -1.723472
 H          -8.807936      -30.095448       -1.809671
 H          -9.429126      -28.918497       -5.852194
 H          -8.278444      -30.160295       -6.241959
 H          -7.626885      -27.930477       -2.535345
 H          -8.902718      -27.419079       -3.466969
 H          -7.236559      -28.059065       -4.869723
 H          -6.934321      -29.552845       -3.979238
