20
 generated by VMD
 C         -78.253296     -204.189194      -69.208542
 N         -79.112534     -203.926407      -70.002182
 H         -75.827171     -202.451981      -67.645752
 H         -77.336456     -204.444336      -68.633621
 C         -75.154510     -202.115753      -68.447380
 C         -75.367836     -200.727585      -69.030083
 C         -74.037056     -202.977631      -68.973030
 C         -74.898148     -200.495102      -70.472702
 C         -72.962265     -202.087784      -69.547714
 C         -73.406006     -201.141373      -70.655899
 H         -74.853470     -200.019882      -68.412117
 H         -76.478432     -200.541397      -68.951836
 H         -73.614014     -203.715591      -68.198257
 H         -74.377007     -203.661438      -69.790260
 H         -74.925476     -199.441071      -70.873108
 H         -75.555489     -201.114746      -71.058655
 H         -72.349289     -202.880966      -69.955666
 H         -72.193138     -201.613266      -68.951248
 H         -72.692558     -200.425064      -70.682724
 H         -73.329788     -201.658676      -71.578384
