20
 generated by VMD
 C         -21.584976      -66.570351      -16.765390
 N         -20.884333      -66.908859      -15.873514
 H         -24.371981      -64.264656      -18.323147
 H         -22.229099      -66.132248      -17.425177
 C         -24.622425      -65.331390      -18.532095
 C         -24.152908      -65.873611      -19.908186
 C         -25.815001      -66.012917      -18.096279
 C         -24.412502      -67.353683      -20.101639
 C         -25.765863      -67.475113      -18.053093
 C         -25.653126      -67.952705      -19.470293
 H         -23.146311      -65.712151      -19.984541
 H         -24.642895      -65.386932      -20.778093
 H         -25.948389      -65.594986      -16.989080
 H         -26.762226      -65.703087      -18.633812
 H         -23.556116      -67.884018      -19.637098
 H         -24.387201      -67.474762      -21.154022
 H         -26.566198      -68.097969      -17.625553
 H         -24.917902      -67.698166      -17.437824
 H         -25.679180      -69.077141      -19.665432
 H         -26.478762      -67.538818      -20.055099
