20
 generated by VMD
 C         -40.535389     -106.734253      -37.384830
 N         -39.464890     -106.681198      -37.842804
 H         -38.481133     -108.641403      -34.880917
 H         -41.556561     -106.963661      -37.007389
 C         -39.220749     -108.908356      -34.087769
 C         -38.677525     -109.891922      -33.129768
 C         -40.653275     -108.760437      -34.396706
 C         -39.685219     -110.450050      -32.118752
 C         -41.551807     -109.324394      -33.197475
 C         -41.053612     -110.726372      -32.791046
 H         -37.769798     -109.720627      -32.457500
 H         -38.498100     -110.827621      -33.691875
 H         -40.912155     -107.796654      -34.673588
 H         -40.832211     -109.380829      -35.288570
 H         -39.882137     -109.794250      -31.358858
 H         -39.183670     -111.319778      -31.624401
 H         -42.662624     -109.494034      -33.523155
 H         -41.469196     -108.596367      -32.381016
 H         -41.799931     -111.204453      -31.959440
 H         -41.015606     -111.401627      -33.606003
