20
 generated by VMD
 C         -38.378181     -110.652405      -36.188629
 N         -37.906635     -109.597061      -36.335125
 H         -40.154522     -112.995384      -36.197281
 H         -38.623951     -111.743195      -36.182373
 C         -41.112511     -113.181763      -35.829193
 C         -42.081444     -113.833496      -36.764713
 C         -41.524086     -112.114281      -34.869442
 C         -43.332413     -114.181091      -35.932049
 C         -42.846909     -112.435905      -34.175240
 C         -43.848465     -113.020889      -35.025463
 H         -41.737926     -114.766632      -37.242813
 H         -42.307064     -113.151695      -37.611629
 H         -40.755329     -112.037148      -34.050884
 H         -41.574757     -111.107552      -35.334766
 H         -43.081013     -115.040764      -35.219410
 H         -44.170910     -114.322357      -36.665302
 H         -43.212231     -111.563141      -33.668732
 H         -42.662724     -113.129585      -33.379765
 H         -44.566601     -113.480896      -34.376286
 H         -44.474560     -112.373970      -35.762592
