20
 generated by VMD
 C         -19.743496      -57.594250      -16.968355
 N         -19.227858      -58.121239      -17.821747
 H         -22.607395      -59.553768      -16.908283
 H         -20.108198      -57.200428      -15.957593
 C         -22.649145      -60.549191      -16.540827
 C         -23.982080      -61.234772      -16.468025
 C         -21.571667      -60.844006      -15.535528
 C         -23.757782      -62.802277      -16.154436
 C         -21.560818      -62.259087      -14.991302
 C         -22.821951      -63.098076      -15.005812
 H         -24.321436      -61.251575      -17.532076
 H         -24.680428      -60.757927      -15.808570
 H         -20.702621      -60.612110      -16.159883
 H         -21.505245      -60.070965      -14.742965
 H         -23.217142      -63.128063      -17.092903
 H         -24.725803      -63.350147      -16.001097
 H         -21.061234      -62.341022      -13.985993
 H         -20.795763      -62.871719      -15.488886
 H         -22.524792      -64.212135      -14.888193
 H         -23.412231      -62.891884      -14.077891
