20
 generated by VMD
 C         -66.457764     -189.664124      -66.607483
 N         -66.268890     -189.293457      -67.706367
 H         -70.096222     -190.455917      -65.313568
 H         -66.804970     -189.967758      -65.647789
 C         -70.793983     -189.950851      -64.603279
 C         -71.948257     -190.813049      -64.116859
 C         -70.483398     -188.715286      -63.917412
 C         -73.086723     -189.884674      -63.889893
 C         -71.733849     -187.778259      -63.762329
 C         -72.880379     -188.558655      -63.175804
 H         -71.791199     -191.340897      -63.157604
 H         -72.218094     -191.622498      -64.888252
 H         -70.168144     -188.970230      -62.913761
 H         -69.775787     -188.087097      -64.548767
 H         -73.852417     -190.434097      -63.265949
 H         -73.628822     -189.746902      -64.817200
 H         -71.943001     -187.389099      -64.755371
 H         -71.615738     -186.993942      -62.956680
 H         -72.654053     -188.830185      -62.181213
 H         -73.826706     -187.897690      -63.040340
