20
 generated by VMD
 C         -31.666622      -78.627396      -26.342857
 N         -31.157295      -77.962776      -27.189138
 H         -29.467037      -79.581192      -23.947830
 H         -32.100727      -79.371742      -25.771931
 C         -29.007305      -80.630928      -23.901632
 C         -27.621763      -80.830574      -23.278896
 C         -29.944639      -81.912880      -23.563162
 C         -27.669611      -81.056244      -21.742184
 C         -29.922039      -82.077148      -22.075769
 C         -28.592144      -82.267349      -21.520332
 H         -27.020761      -79.931221      -23.444235
 H         -27.066549      -81.702103      -23.771858
 H         -30.900000      -81.812042      -24.056440
 H         -29.400143      -82.794884      -23.909496
 H         -28.069798      -80.103996      -21.282478
 H         -26.663574      -81.222183      -21.408358
 H         -30.584940      -82.829498      -21.914371
 H         -30.352768      -81.265495      -21.468067
 H         -28.646513      -82.642662      -20.447834
 H         -28.138391      -83.185936      -21.957630
