20
 generated by VMD
 C         -30.374521      -74.718590      -21.107309
 N         -31.106867      -75.458122      -20.624292
 H         -27.530720      -74.714088      -19.455454
 H         -29.682899      -73.874046      -21.229214
 C         -26.790625      -74.673668      -20.278965
 C         -26.549112      -75.813385      -21.283352
 C         -25.981339      -73.428543      -20.448311
 C         -26.017801      -75.334152      -22.654652
 C         -25.577629      -73.152786      -21.836208
 C         -24.879879      -74.318687      -22.537374
 H         -27.475681      -76.256119      -21.478823
 H         -25.875988      -76.477448      -20.742676
 H         -26.485304      -72.556198      -20.183794
 H         -25.216208      -73.443718      -19.782995
 H         -26.829802      -74.885124      -23.292297
 H         -25.678091      -76.230438      -23.240047
 H         -24.834457      -72.337669      -21.990519
 H         -26.352917      -72.642212      -22.422495
 H         -24.433332      -74.173264      -23.518757
 H         -24.175779      -74.609276      -21.762035
