20
 generated by VMD
 C         -66.867989     -189.965164      -66.959724
 N         -67.434723     -190.118683      -65.939941
 H         -70.445854     -190.673859      -66.302032
 H         -66.420059     -189.585571      -67.881020
 C         -71.173691     -190.344223      -65.529762
 C         -72.373840     -191.132294      -65.053566
 C         -70.413208     -189.432266      -64.555595
 C         -73.185577     -190.243805      -64.073944
 C         -71.516418     -188.498917      -64.007469
 C         -72.448334     -189.315125      -63.212498
 H         -72.285393     -192.176086      -64.674294
 H         -72.962059     -191.365311      -65.905823
 H         -69.831200     -189.973343      -63.757107
 H         -69.762161     -188.842316      -65.061905
 H         -73.884201     -190.868866      -63.442200
 H         -73.888412     -189.658279      -64.694809
 H         -72.026222     -188.049530      -64.841827
 H         -71.106583     -187.741623      -63.320076
 H         -72.027931     -189.959473      -62.408283
 H         -73.045403     -188.648209      -62.765099
