20
 generated by VMD
 C         -64.832962     -175.441940      -55.840954
 N         -64.143234     -176.111664      -56.480843
 H         -65.739716     -174.311203      -58.945728
 H         -65.450394     -174.848297      -55.198463
 C         -64.947029     -173.529175      -58.956600
 C         -65.330421     -172.203735      -58.181519
 C         -63.947292     -173.318207      -60.208431
 C         -64.462212     -170.960022      -58.468071
 C         -63.105522     -172.010162      -60.116074
 C         -63.861923     -170.795151      -59.845131
 H         -65.418251     -172.261810      -56.992645
 H         -66.351868     -171.907440      -58.415028
 H         -63.463444     -174.152557      -60.488510
 H         -64.551186     -173.234726      -61.088634
 H         -63.574947     -171.066147      -57.782284
 H         -65.013771     -170.018921      -58.178711
 H         -62.481491     -171.942474      -61.043312
 H         -62.344257     -172.024506      -59.354912
 H         -63.233738     -169.848816      -59.856373
 H         -64.686172     -170.664047      -60.555355
