20
 generated by VMD
 C         -29.460043      -89.345871      -26.033342
 N         -29.528271      -88.677620      -25.059063
 H         -31.854799      -90.793098      -27.757269
 H         -29.289406      -89.826843      -26.973625
 C         -32.472355      -90.024734      -27.431328
 C         -33.252533      -90.190407      -26.160692
 C         -32.947594      -89.274330      -28.551792
 C         -34.140839      -88.958908      -25.962915
 C         -33.946331      -88.122536      -28.291170
 C         -34.992310      -88.519287      -27.205732
 H         -32.606712      -90.297630      -25.269932
 H         -33.887169      -91.077675      -26.129919
 H         -32.109261      -88.843658      -29.179213
 H         -33.561935      -89.921455      -29.261135
 H         -33.422993      -88.146408      -25.671242
 H         -34.835945      -89.067703      -25.015921
 H         -34.309528      -87.799660      -29.284298
 H         -33.470020      -87.184731      -27.885471
 H         -35.698326      -87.776260      -27.026995
 H         -35.434147      -89.452133      -27.587971
