20
 generated by VMD
 C         -41.488995     -120.039337      -34.032242
 N         -41.880692     -120.884293      -34.695610
 H         -43.499760     -119.175171      -37.143936
 H         -40.987831     -119.349762      -33.369087
 C         -43.935150     -118.699234      -38.049477
 C         -43.120636     -118.624062      -39.268593
 C         -45.239281     -117.997932      -38.033195
 C         -43.867188     -118.645584      -40.590446
 C         -46.058983     -118.333282      -39.276005
 C         -45.223877     -118.024338      -40.523849
 H         -42.286423     -119.372093      -39.220116
 H         -42.481720     -117.661331      -39.124947
 H         -45.683346     -118.340218      -37.159439
 H         -45.351067     -116.905182      -37.986156
 H         -44.128445     -119.756447      -40.801716
 H         -43.247272     -118.291069      -41.407661
 H         -47.037834     -117.814865      -39.133858
 H         -46.353443     -119.274918      -39.271248
 H         -45.900394     -118.026649      -41.321224
 H         -45.109276     -116.908913      -40.549976
