20
 generated by VMD
 C         -49.692341     -127.367233      -39.944069
 N         -49.061039     -126.704765      -39.215038
 H         -47.104111     -126.787605      -41.712601
 H         -50.468262     -127.859749      -40.492443
 C         -46.355156     -126.009186      -41.475761
 C         -45.261536     -126.445366      -40.439457
 C         -46.803844     -124.595901      -41.313995
 C         -44.111336     -125.544304      -40.509640
 C         -45.627251     -123.684937      -41.336483
 C         -44.310459     -123.988968      -40.517086
 H         -44.977795     -127.549873      -40.740833
 H         -45.622498     -126.551712      -39.418194
 H         -47.639721     -124.407593      -41.977558
 H         -47.423199     -124.385063      -40.311909
 H         -43.570801     -125.661438      -41.500851
 H         -43.315620     -125.755096      -39.743027
 H         -45.796791     -122.631676      -41.353409
 H         -45.290558     -123.833786      -42.350056
 H         -43.452976     -123.546051      -40.957993
 H         -44.412403     -123.626770      -39.462154
