20
 generated by VMD
 C         -58.566879     -161.858688      -56.541264
 N         -57.833725     -161.085800      -56.088055
 H         -59.585369     -165.047043      -55.072975
 H         -59.318970     -162.589600      -56.855934
 C         -60.243046     -164.286087      -54.813602
 C         -59.917843     -163.630920      -53.501339
 C         -61.687851     -164.361816      -55.306179
 C         -60.791786     -162.412781      -53.306801
 C         -62.681358     -163.171768      -54.906281
 C         -62.238369     -162.718323      -53.506126
 H         -58.872017     -163.203445      -53.566029
 H         -60.082783     -164.482269      -52.768093
 H         -61.656609     -164.339172      -56.427608
 H         -62.011768     -165.330688      -54.900391
 H         -60.637623     -161.567368      -54.002979
 H         -60.794952     -162.059097      -52.266235
 H         -63.689762     -163.408295      -55.000561
 H         -62.671650     -162.403931      -55.636684
 H         -62.917782     -161.952408      -53.115948
 H         -62.449505     -163.663757      -52.868870
