20
 generated by VMD
 C         -27.760792      -72.636848      -17.984694
 N         -28.061291      -73.552498      -17.286856
 H         -24.504950      -70.921257      -18.765001
 H         -27.216595      -71.956535      -18.536987
 C         -25.037266      -71.074669      -19.738436
 C         -24.440262      -72.124962      -20.507668
 C         -25.734657      -69.961037      -20.503975
 C         -25.316496      -72.580177      -21.600626
 C         -26.462610      -70.419289      -21.792358
 C         -25.680677      -71.514885      -22.517191
 H         -24.157534      -73.062737      -19.782146
 H         -23.468988      -71.727844      -20.911509
 H         -26.561691      -69.413498      -19.922611
 H         -24.953947      -69.244766      -20.791376
 H         -26.169613      -73.116417      -21.149546
 H         -24.636541      -73.244202      -22.163902
 H         -26.607370      -69.566956      -22.546125
 H         -27.391569      -71.007217      -21.546556
 H         -26.018410      -71.923241      -23.406076
 H         -24.774557      -70.976349      -22.807299
