20
 generated by VMD
 C         -27.950935      -82.990356      -27.345932
 N         -27.203333      -83.431137      -26.574213
 H         -31.177652      -84.416580      -26.419043
 H         -28.536760      -82.690681      -28.166887
 C         -31.856333      -85.105209      -25.801834
 C         -31.537594      -84.979393      -24.324772
 C         -32.186882      -86.373795      -26.374619
 C         -32.544518      -85.727524      -23.457476
 C         -33.308426      -87.025490      -25.540504
 C         -32.819439      -87.106705      -24.113680
 H         -31.446518      -83.911041      -24.079950
 H         -30.528656      -85.267792      -24.021564
 H         -32.618382      -86.225403      -27.375975
 H         -31.297482      -86.966599      -26.440479
 H         -33.505402      -85.268761      -23.500740
 H         -32.045597      -85.783340      -22.437063
 H         -33.531956      -88.067505      -26.052401
 H         -34.295963      -86.439354      -25.568495
 H         -33.478031      -87.697884      -23.382198
 H         -31.851622      -87.608887      -23.945158
