20
 generated by VMD
 C         -27.543432      -81.244286      -27.189753
 N         -28.469030      -81.785851      -27.644360
 H         -30.037672      -83.844002      -25.815369
 H         -26.608112      -80.769760      -26.663130
 C         -30.715862      -84.266708      -25.108366
 C         -30.586740      -84.178696      -23.554888
 C         -31.679029      -85.306633      -25.720428
 C         -31.870770      -84.639442      -22.866211
 C         -32.737709      -85.940834      -24.702631
 C         -32.289028      -85.982750      -23.320286
 H         -30.390587      -83.089233      -23.255905
 H         -29.817608      -84.862175      -23.304863
 H         -32.105225      -84.935814      -26.645203
 H         -31.082016      -86.221466      -25.893583
 H         -32.728096      -83.872162      -22.793339
 H         -31.570328      -84.734680      -21.847279
 H         -32.910328      -86.923370      -25.022396
 H         -33.751911      -85.471512      -24.668259
 H         -32.978497      -86.387169      -22.622381
 H         -31.406368      -86.623222      -23.292145
