20
 generated by VMD
 C         -27.865793      -86.326485      -26.157640
 N         -28.243593      -86.958557      -27.085497
 H         -30.866339      -86.923790      -25.138655
 H         -27.326565      -85.798286      -25.264784
 C         -31.848013      -87.157349      -25.557032
 C         -32.885532      -87.592918      -24.605110
 C         -32.110439      -87.586319      -26.994207
 C         -34.266857      -87.466637      -25.122154
 C         -33.590763      -87.403572      -27.467541
 C         -34.517277      -88.266296      -26.475248
 H         -32.728203      -86.947479      -23.673141
 H         -32.652729      -88.625198      -24.387644
 H         -31.394739      -86.992561      -27.583202
 H         -31.862848      -88.655296      -27.022709
 H         -34.741566      -86.489410      -25.270285
 H         -35.042866      -87.921959      -24.403313
 H         -33.738342      -87.710793      -28.476252
 H         -33.879642      -86.310966      -27.516502
 H         -35.631901      -88.277687      -26.675196
 H         -34.039516      -89.282593      -26.416771
