20
 generated by VMD
 C          -3.903202      -20.459555        3.220795
 N          -4.408328      -19.510750        2.919504
 H          -5.191234      -19.427958       -0.039692
 H          -5.991504      -20.870506       -0.468064
 C          -5.961864      -19.804565       -0.728351
 C          -5.685649      -19.601618       -2.260406
 C          -7.302831      -19.176374       -0.363947
 C          -6.811274      -20.066833       -3.227327
 C          -8.406832      -19.641617       -1.274908
 C          -8.185212      -19.553978       -2.786707
 H          -4.665038      -20.103489       -2.470983
 H          -5.546380      -18.552259       -2.377434
 H          -7.596092      -19.401392        0.619518
 H          -7.211376      -18.157944       -0.544695
 H          -6.881373      -21.166924       -3.173134
 H          -6.564903      -19.863016       -4.277685
 H          -9.317971      -19.005259       -1.078521
 H          -8.646919      -20.684696       -0.972105
 H          -8.925115      -20.204414       -3.285459
 H          -8.411364      -18.510605       -3.110253
