20
 generated by VMD
 C         -17.959452      -48.515141       -7.139069
 N         -17.588261      -47.879406       -6.287182
 H         -16.347067      -48.570805      -10.472034
 H         -15.806733      -48.834274      -11.975899
 C         -16.332386      -48.069130      -11.420591
 C         -15.395419      -46.833153      -11.405217
 C         -17.700583      -47.900673      -12.042960
 C         -15.341539      -46.233105      -12.775218
 C         -17.623474      -47.275383      -13.439663
 C         -16.753632      -45.986877      -13.391345
 H         -14.384325      -47.192802      -11.126823
 H         -15.647434      -46.199894      -10.530203
 H         -18.309038      -48.852829      -12.045481
 H         -18.179911      -47.156513      -11.351583
 H         -14.762943      -46.863232      -13.464942
 H         -14.859674      -45.256744      -12.701124
 H         -18.631329      -46.965240      -13.864435
 H         -17.220221      -48.016277      -14.044503
 H         -16.669767      -45.580845      -14.363442
 H         -17.253630      -45.325630      -12.704880
