20
 generated by VMD
 C         -23.488422      -55.105522      -15.058649
 N         -22.706005      -54.820053      -15.853948
 H         -19.724201      -54.446556      -15.642737
 H         -23.956722      -55.158875      -14.018258
 C         -19.494955      -55.233738      -14.853833
 C         -18.970490      -54.880699      -13.516146
 C         -19.011417      -56.511375      -15.398976
 C         -19.126722      -56.042015      -12.558214
 C         -19.448460      -57.698017      -14.394288
 C         -18.653069      -57.413177      -13.130898
 H         -19.470854      -53.969749      -13.176035
 H         -17.951368      -54.640411      -13.510645
 H         -19.450279      -56.561417      -16.425251
 H         -17.998329      -56.548832      -15.574577
 H         -20.164169      -56.107025      -12.183209
 H         -18.476557      -55.813908      -11.730352
 H         -19.222887      -58.694481      -14.827208
 H         -20.561136      -57.637363      -14.181983
 H         -18.746405      -58.107647      -12.282123
 H         -17.638927      -57.214287      -13.399932
