20
 generated by VMD
 C         -65.837074     -177.669952      -56.909336
 N         -66.251976     -176.621323      -57.113358
 H         -64.878883     -175.855286      -59.353813
 H         -65.467819     -178.628235      -56.613468
 C         -64.636101     -174.716843      -59.344677
 C         -65.488930     -173.690933      -58.642105
 C         -63.469215     -174.324646      -60.390491
 C         -65.262703     -172.207230      -59.003819
 C         -63.124046     -172.865295      -60.167969
 C         -64.336731     -172.001129      -60.243416
 H         -65.289207     -173.876740      -57.497021
 H         -66.515793     -173.844696      -58.898556
 H         -62.696056     -174.965744      -60.014366
 H         -63.882759     -174.458755      -61.399742
 H         -64.757011     -171.588791      -58.286762
 H         -66.203186     -171.710358      -59.314301
 H         -62.535915     -172.566193      -60.978897
 H         -62.541031     -172.848221      -59.198956
 H         -64.214798     -170.938522      -60.508724
 H         -64.977173     -172.521515      -61.061607
