20
 generated by VMD
 C         -21.231424      -52.048771      -10.241323
 N         -21.451580      -53.116917      -10.703288
 H         -19.757315      -50.302319      -12.957222
 H         -21.058470      -51.041153      -10.174308
 C         -18.715000      -50.428909      -12.943471
 C         -18.250055      -51.762737      -13.455927
 C         -17.753786      -49.622860      -12.211473
 C         -16.904846      -51.677006      -14.175982
 C         -16.372814      -49.724865      -12.855312
 C         -15.768976      -51.056648      -13.364717
 H         -18.989540      -52.158691      -14.159868
 H         -18.100655      -52.465706      -12.600274
 H         -17.929914      -48.537834      -12.157607
 H         -17.714317      -49.913654      -11.174714
 H         -17.019701      -51.128902      -15.125500
 H         -16.517578      -52.648186      -14.565859
 H         -15.708617      -49.146904      -12.161276
 H         -16.400576      -49.124123      -13.711752
 H         -14.864095      -50.925369      -14.014178
 H         -15.480269      -51.753742      -12.540672
