20
 generated by VMD
 C         -49.835133     -141.786285      -45.247036
 N         -49.326740     -142.817261      -45.261044
 H         -51.813831     -138.965042      -46.027428
 H         -50.208496     -140.762329      -45.096077
 C         -52.275196     -139.916901      -46.419357
 C         -52.408638     -140.094498      -47.879108
 C         -53.375000     -140.436813      -45.484474
 C         -52.975056     -141.440659      -48.345825
 C         -53.926193     -141.814728      -45.985489
 C         -54.245190     -141.751099      -47.498085
 H         -51.485596     -139.924500      -48.430294
 H         -53.118256     -139.307861      -48.254597
 H         -52.872757     -140.530884      -44.542336
 H         -54.029968     -139.572998      -45.724678
 H         -52.095108     -142.147980      -48.257797
 H         -53.323132     -141.451965      -49.465443
 H         -54.756344     -142.157394      -45.428497
 H         -53.134903     -142.556473      -45.854034
 H         -54.516846     -142.810547      -47.813683
 H         -55.095642     -141.037109      -47.794952
