20
 generated by VMD
 C         -40.734470     -100.081367      -29.914543
 N         -40.555752     -100.306290      -28.781109
 H         -37.293869      -98.980873      -30.801403
 H         -40.959400     -100.149902      -30.960854
 C         -36.448189      -99.641502      -30.813263
 C         -35.934216      -99.634422      -32.270126
 C         -35.287361      -99.523361      -29.818096
 C         -34.968464      -98.467094      -32.371002
 C         -34.335823      -98.458740      -30.021282
 C         -33.852932      -98.527412      -31.419172
 H         -36.793262      -99.567673      -32.874954
 H         -35.324478     -100.555550      -32.461277
 H         -35.599232      -99.484711      -28.821541
 H         -34.726116     -100.474419      -30.005299
 H         -35.403233      -97.486801      -32.323669
 H         -34.459332      -98.528534      -33.288441
 H         -33.480320      -98.622101      -29.348070
 H         -34.836353      -97.443718      -29.955715
 H         -33.288052      -97.603241      -31.481689
 H         -33.185734      -99.388794      -31.592590
