20
 generated by VMD
 C         -43.283466     -120.974022      -35.505440
 N         -42.810436     -120.754982      -34.449162
 H         -44.157551     -121.527634      -38.784836
 H         -43.507046     -121.134155      -36.624382
 C         -44.158730     -120.391808      -38.791122
 C         -43.136410     -119.788536      -39.672043
 C         -45.385815     -119.667351      -38.237484
 C         -43.780666     -119.067795      -40.725254
 C         -45.900181     -118.792961      -39.367443
 C         -44.773346     -118.035965      -40.048592
 H         -42.434292     -120.529678      -40.040398
 H         -42.459103     -119.241180      -38.925591
 H         -45.989864     -120.499893      -38.018780
 H         -45.037334     -119.157509      -37.326260
 H         -44.290028     -119.894791      -41.401314
 H         -43.118465     -118.518333      -41.369625
 H         -46.656654     -118.178513      -38.961212
 H         -46.580486     -119.408348      -39.987125
 H         -45.305862     -117.415810      -40.730049
 H         -44.339489     -117.202583      -39.467159
