20
 generated by VMD
 C         -12.401617      -28.319704       -5.417170
 N         -13.212014      -28.118296       -6.164579
 H         -11.864038      -31.826109       -4.386675
 H         -11.332509      -30.404848       -5.289386
 C         -11.005693      -31.144253       -4.534656
 C          -9.786018      -31.909817       -5.188683
 C         -10.638074      -30.373318       -3.165851
 C          -8.592574      -31.021254       -5.262121
 C          -9.196160      -29.725996       -3.200316
 C          -8.129292      -30.579727       -3.857010
 H          -9.994458      -32.229836       -6.166959
 H          -9.709185      -32.846149       -4.526050
 H         -11.460913      -29.602079       -2.981957
 H         -10.638410      -31.075672       -2.310411
 H          -8.828651      -30.097654       -5.862429
 H          -7.819828      -31.622215       -5.768058
 H          -8.946134      -29.356188       -2.193607
 H          -9.232516      -28.812437       -3.820424
 H          -7.207447      -29.965149       -3.919438
 H          -8.067041      -31.444742       -3.246636
