20
 generated by VMD
 C         -53.631119     -147.772034      -45.444317
 N         -54.520252     -147.840454      -44.748543
 H         -55.178265     -147.630707      -49.117279
 H         -52.789513     -147.590347      -46.133625
 C         -54.532997     -146.772705      -49.048374
 C         -53.259266     -146.627945      -49.740868
 C         -55.006569     -145.721405      -48.092949
 C         -53.189720     -145.396027      -50.633404
 C         -55.185543     -144.508606      -48.998344
 C         -53.866360     -144.189697      -49.911869
 H         -53.094902     -147.466110      -50.353020
 H         -52.402348     -146.624893      -49.012520
 H         -55.930855     -146.024994      -47.594685
 H         -54.253632     -145.321655      -47.318321
 H         -54.013893     -145.542694      -51.364269
 H         -52.298058     -145.201706      -51.235195
 H         -55.445484     -143.593903      -48.352371
 H         -56.048996     -144.737045      -49.691311
 H         -54.236477     -143.397995      -50.634583
 H         -53.193748     -143.550156      -49.326481
