20
 generated by VMD
 C         -12.167797      -30.977245       -8.428498
 N         -11.954708      -30.631020       -7.374646
 H         -11.650414      -34.821392       -7.848514
 H         -12.849768      -34.109142       -6.906840
 C         -11.924607      -34.666039       -6.823570
 C         -10.830587      -33.882435       -6.099277
 C         -12.130711      -36.045509       -6.181312
 C         -11.165517      -33.598076       -4.660168
 C         -12.398334      -35.778816       -4.670571
 C         -11.335141      -34.922363       -3.921898
 H         -10.686809      -32.933266       -6.690402
 H          -9.857203      -34.356403       -6.225388
 H         -12.947984      -36.596222       -6.693829
 H         -11.238875      -36.670856       -6.288006
 H         -12.045669      -32.981930       -4.436028
 H         -10.344938      -32.966717       -4.205380
 H         -12.454566      -36.796349       -4.119932
 H         -13.330686      -35.312664       -4.494848
 H         -11.641396      -34.819378       -2.833585
 H         -10.360696      -35.444828       -3.966982
