20
 generated by VMD
 C         -49.523525     -127.672638      -38.999966
 N         -49.934452     -126.783730      -38.390606
 H         -47.073502     -125.517601      -40.518631
 H         -48.943939     -128.421982      -39.522888
 C         -46.209991     -124.964996      -40.687851
 C         -44.788998     -125.488525      -40.270554
 C         -46.323250     -123.473694      -40.871559
 C         -43.618664     -124.737587      -40.920864
 C         -45.132259     -122.737396      -41.478176
 C         -43.827694     -123.271591      -41.121754
 H         -44.739521     -126.570160      -40.392361
 H         -44.706829     -125.241257      -39.107231
 H         -47.379021     -123.378250      -41.243740
 H         -46.324986     -123.135063      -39.866772
 H         -43.410828     -125.279640      -41.896366
 H         -42.675381     -124.897652      -40.320419
 H         -45.151508     -121.753952      -41.183262
 H         -45.366844     -122.746620      -42.504333
 H         -43.017750     -122.805794      -41.733429
 H         -43.580353     -122.860626      -40.154339
