20
 generated by VMD
 C         -69.347923     -180.355270      -59.852955
 N         -68.839668     -181.245087      -60.442184
 H         -67.417488     -177.545685      -59.532459
 H         -69.734962     -179.552017      -59.284954
 C         -66.424263     -177.018768      -59.903976
 C         -66.006165     -176.892685      -61.372173
 C         -65.352127     -176.948715      -58.774628
 C         -64.831131     -175.797287      -61.593132
 C         -64.104172     -176.003311      -59.238583
 C         -63.652035     -176.095840      -60.699512
 H         -66.832619     -176.502884      -61.965076
 H         -65.559135     -177.818024      -61.788670
 H         -65.827103     -176.654877      -57.820740
 H         -64.949913     -178.017563      -58.647625
 H         -65.187859     -174.864197      -61.302658
 H         -64.497505     -175.871124      -62.628155
 H         -63.260120     -176.485199      -58.695480
 H         -64.234695     -174.983231      -58.760654
 H         -62.787945     -175.377808      -60.820602
 H         -63.340958     -177.167236      -61.017624
