20
 generated by VMD
 C         -59.386589     -152.459641      -50.942066
 N         -60.361324     -153.091614      -50.702744
 H         -56.908955     -151.771057      -48.981541
 H         -58.569672     -151.799911      -51.078468
 C         -56.142834     -151.373657      -49.619568
 C         -55.040142     -152.408829      -49.770576
 C         -55.812469     -149.997345      -49.380096
 C         -54.268604     -152.075577      -51.072590
 C         -54.960804     -149.730484      -50.592400
 C         -53.778004     -150.616684      -51.036423
 H         -55.575066     -153.391296      -50.044006
 H         -54.394588     -152.531464      -48.853649
 H         -56.658451     -149.281845      -49.246101
 H         -55.262852     -149.946609      -48.462543
 H         -55.013245     -152.176682      -51.901035
 H         -53.466095     -152.839523      -51.149181
 H         -54.593155     -148.679382      -50.543736
 H         -55.618076     -149.615265      -51.530590
 H         -53.276047     -150.351883      -51.905182
 H         -53.015606     -150.583572      -50.207893
