20
 generated by VMD
 C         -16.965078      -47.890450       -7.155543
 N         -16.525677      -46.879166       -7.063727
 H         -16.614227      -48.468544      -10.443967
 H         -15.459061      -48.185169      -11.709611
 C         -16.370922      -47.799210      -11.244876
 C         -16.042921      -46.471798      -10.619452
 C         -17.545464      -47.890396      -12.308385
 C         -15.702021      -45.601295      -11.783067
 C         -17.257969      -46.941364      -13.459873
 C         -16.809031      -45.586609      -12.901841
 H         -15.244211      -46.546486       -9.814330
 H         -16.913574      -46.078339      -10.078405
 H         -17.558395      -48.924675      -12.725095
 H         -18.559769      -47.727753      -11.847701
 H         -14.815804      -46.010254      -12.323315
 H         -15.465311      -44.578217      -11.486524
 H         -18.120523      -46.922733      -14.051044
 H         -16.390503      -47.273964      -14.075546
 H         -16.366407      -45.045338      -13.742055
 H         -17.638887      -45.081913      -12.472755
