20
 generated by VMD
 C         -29.693901      -87.883698      -25.130068
 N         -29.018587      -88.746643      -25.577215
 H         -31.380430      -89.775009      -27.929174
 H         -30.377577      -87.221977      -24.554956
 C         -32.381607      -89.706383      -27.519655
 C         -32.762520      -89.599403      -26.121731
 C         -33.464081      -89.503876      -28.452896
 C         -33.446442      -88.258873      -25.776089
 C         -34.103462      -88.123238      -28.216192
 C         -34.657440      -88.087975      -26.761011
 H         -31.817776      -89.625191      -25.545500
 H         -33.514664      -90.482666      -25.959990
 H         -32.966335      -89.538391      -29.446188
 H         -34.297714      -90.219795      -28.494267
 H         -32.555389      -87.517807      -25.764698
 H         -33.665676      -88.307205      -24.719543
 H         -34.931419      -87.889732      -28.935152
 H         -33.387051      -87.354324      -28.431776
 H         -35.017925      -87.082123      -26.568409
 H         -35.287983      -88.942894      -26.546253
