20
 generated by VMD
 C         -27.622782      -84.576187      -26.163706
 N         -28.224672      -85.057579      -27.047964
 H         -31.271637      -84.600273      -26.123188
 H         -27.212852      -84.029472      -25.341682
 C         -31.878202      -85.479729      -25.768209
 C         -31.921242      -85.935219      -24.314726
 C         -32.098354      -86.607361      -26.829762
 C         -33.307838      -86.586365      -24.163725
 C         -33.376541      -87.391396      -26.537764
 C         -33.431469      -87.686768      -25.135536
 H         -31.872952      -85.033363      -23.642134
 H         -31.001696      -86.659920      -24.228544
 H         -32.223770      -86.265808      -27.887848
 H         -31.318150      -87.332039      -26.857788
 H         -34.062908      -85.785942      -24.455256
 H         -33.351570      -86.934555      -23.120853
 H         -33.359318      -88.264473      -27.214424
 H         -34.285522      -86.774597      -26.817408
 H         -34.354050      -88.243568      -24.884005
 H         -32.635433      -88.444977      -24.807606
