20
 generated by VMD
 C         -73.843521     -201.579437      -65.331604
 N         -72.854172     -201.077332      -65.652534
 H         -74.805779     -198.030060      -66.810875
 H         -74.710701     -202.032547      -64.949341
 C         -74.728043     -197.542679      -67.823715
 C         -74.763550     -196.052948      -67.896988
 C         -74.149109     -198.472260      -68.882561
 C         -73.495094     -195.421326      -68.449539
 C         -73.614479     -197.656342      -69.992836
 C         -72.801102     -196.421341      -69.543503
 H         -74.877716     -195.847092      -66.861900
 H         -75.647537     -195.702667      -68.496666
 H         -73.276169     -198.994034      -68.433426
 H         -74.986465     -199.161377      -69.244774
 H         -72.805847     -195.156860      -67.665428
 H         -73.899086     -194.526550      -68.955185
 H         -74.357468     -197.212830      -70.596115
 H         -73.085457     -198.237915      -70.790039
 H         -71.907501     -196.758926      -68.980942
 H         -72.430267     -195.801163      -70.456497
