20
 generated by VMD
 C         -10.242404      -24.974857       -0.693785
 N         -11.344423      -24.792740       -0.572641
 H          -6.299217      -25.313007       -1.130553
 H          -8.118258      -25.223717       -1.218343
 C          -7.135116      -25.044859       -1.747059
 C          -6.916529      -25.877209       -3.006384
 C          -6.912105      -23.631483       -1.989179
 C          -7.906096      -25.458879       -4.121067
 C          -7.863525      -23.141071       -3.085815
 C          -7.839244      -23.989658       -4.352190
 H          -6.857439      -26.911337       -2.756958
 H          -5.856339      -25.801771       -3.387687
 H          -7.034821      -23.045889       -1.028808
 H          -5.888103      -23.432619       -2.251455
 H          -8.947424      -25.900103       -3.974079
 H          -7.632763      -25.911818       -5.104446
 H          -7.525617      -22.137049       -3.288133
 H          -8.878858      -23.117632       -2.686907
 H          -8.742324      -23.686411       -4.930578
 H          -6.948773      -23.880169       -4.932431
