20
 generated by VMD
 C         -10.969895      -34.179234       -8.659207
 N         -11.200181      -33.164768       -8.974459
 H         -11.559379      -38.050404       -8.090881
 H         -12.098592      -37.270538       -6.562576
 C         -12.357221      -38.032070       -7.306649
 C         -12.494745      -39.359970       -6.596372
 C         -13.648531      -37.699074       -8.052646
 C         -13.652390      -39.290901       -5.616697
 C         -14.884599      -37.740932       -7.101648
 C         -14.948862      -39.063805       -6.297733
 H         -11.535162      -39.562626       -6.121762
 H         -12.610304      -40.229057       -7.266445
 H         -13.592909      -36.750450       -8.509212
 H         -13.695655      -38.418846       -8.907526
 H         -13.440063      -38.555325       -4.884080
 H         -13.765516      -40.184044       -5.034266
 H         -15.781517      -37.741543       -7.682211
 H         -14.907068      -36.851067       -6.368466
 H         -15.835194      -39.106846       -5.612525
 H         -15.057394      -39.917053       -7.006400
