20
 generated by VMD
 C          -0.861584      -13.424576        0.834330
 N          -0.286865      -13.265576       -0.080240
 H          -4.540237      -13.348057        2.122519
 H          -5.641178      -13.339028        0.804614
 C          -5.259870      -13.977460        1.569617
 C          -6.378771      -14.525250        2.421399
 C          -4.407007      -15.153971        1.109084
 C          -7.206371      -15.659209        1.818298
 C          -5.248342      -16.227253        0.391262
 C          -6.326046      -16.791779        1.353492
 H          -7.139197      -13.759067        2.638630
 H          -6.040975      -14.825234        3.389991
 H          -3.673151      -14.860324        0.331170
 H          -3.772761      -15.606105        2.002441
 H          -7.689900      -15.231313        0.960464
 H          -7.986503      -15.967833        2.493252
 H          -4.602305      -17.026785        0.118713
 H          -5.743500      -15.832863       -0.496175
 H          -6.798120      -17.697187        0.994399
 H          -5.706521      -17.089754        2.194052
