20
 generated by VMD
 C         -32.164936      -94.380447      -25.361420
 N         -33.294178      -94.744583      -25.341747
 H         -33.864529      -94.889008      -28.281347
 H         -31.283264      -93.893776      -25.492664
 C         -34.298626      -94.118904      -28.909878
 C         -35.655697      -93.653641      -28.606754
 C         -33.470161      -93.482132      -30.001356
 C         -35.747601      -92.054070      -28.712379
 C         -33.547569      -91.936104      -29.999252
 C         -35.044506      -91.572426      -29.982510
 H         -35.979130      -94.020981      -27.574692
 H         -36.491127      -93.918488      -29.307402
 H         -32.429939      -93.847755      -29.946848
 H         -33.923183      -93.952248      -30.871742
 H         -35.349358      -91.483543      -27.851713
 H         -36.888660      -91.828972      -28.923983
 H         -33.256115      -91.588226      -30.978590
 H         -32.788288      -91.398048      -29.377012
 H         -35.269512      -90.435730      -30.009359
 H         -35.499409      -92.117905      -30.857658
