20
 generated by VMD
 C         -22.652245      -68.294212      -16.659462
 N         -22.569454      -68.912193      -15.680796
 H         -24.158178      -66.486427      -18.142273
 H         -22.724102      -67.855286      -17.575621
 C         -24.613405      -66.818939      -19.044575
 C         -23.812075      -67.356552      -20.243456
 C         -26.112282      -66.787491      -19.073303
 C         -24.488653      -68.785454      -20.453064
 C         -26.612144      -68.198311      -19.196409
 C         -26.070774      -68.888130      -20.409538
 H         -22.782696      -67.402870      -19.991341
 H         -24.041988      -66.695312      -21.187853
 H         -26.478622      -66.348694      -18.163490
 H         -26.471174      -66.354988      -19.953455
 H         -24.041536      -69.449394      -19.703869
 H         -24.000536      -69.159416      -21.361452
 H         -27.655750      -68.262688      -19.383064
 H         -26.451731      -68.823868      -18.327148
 H         -26.458651      -69.899033      -20.362743
 H         -26.529961      -68.388817      -21.284973
