20
 generated by VMD
 C         -20.388535      -57.295280      -16.664474
 N         -19.736462      -56.357250      -16.568497
 H         -22.754919      -60.113586      -17.874834
 H         -20.944057      -58.217793      -16.584549
 C         -22.637869      -60.647591      -16.954533
 C         -23.486628      -60.387135      -15.794475
 C         -21.286913      -61.345089      -16.787371
 C         -22.628389      -60.449982      -14.495915
 C         -20.947865      -62.080566      -15.511548
 C         -21.949257      -61.804050      -14.341008
 H         -24.166267      -61.227299      -15.846852
 H         -23.984146      -59.400482      -15.914987
 H         -20.985420      -61.955761      -17.649963
 H         -20.551537      -60.517433      -16.801083
 H         -23.203621      -60.194946      -13.612158
 H         -21.812168      -59.641312      -14.494818
 H         -19.940418      -61.733410      -15.132031
 H         -21.015223      -63.137562      -15.802603
 H         -22.795607      -62.465328      -14.486024
 H         -21.552130      -62.137997      -13.379126
