20
 generated by VMD
 C         -31.625481      -75.753555      -23.861412
 N         -31.038885      -76.211433      -24.769955
 H         -29.667004      -78.487068      -22.149172
 H         -32.297817      -75.351158      -23.193924
 C         -28.634001      -78.235359      -22.073629
 C         -27.596840      -78.356651      -23.274782
 C         -28.105728      -78.084648      -20.657427
 C         -26.324963      -77.470024      -22.944725
 C         -26.732738      -77.375000      -20.405642
 C         -25.715250      -77.768074      -21.530313
 H         -28.039736      -77.956703      -24.078173
 H         -27.329891      -79.331848      -23.534496
 H         -28.848385      -77.449455      -20.057199
 H         -28.046139      -79.093483      -20.128719
 H         -26.575687      -76.416748      -23.152721
 H         -25.537464      -77.680992      -23.716423
 H         -26.253134      -77.782745      -19.497114
 H         -26.929361      -76.256409      -20.363579
 H         -24.792507      -77.275299      -21.479214
 H         -25.440613      -78.849602      -21.492508
