20
 generated by VMD
 C         -40.611286     -106.447556      -37.199753
 N         -39.662575     -106.725029      -37.790493
 H         -38.375145     -108.071007      -34.504112
 H         -41.444355     -106.046654      -36.686813
 C         -39.084282     -108.704742      -33.948338
 C         -38.581123     -109.857208      -33.152714
 C         -40.492249     -108.839836      -34.488693
 C         -39.559406     -110.294952      -32.029301
 C         -41.482365     -109.252953      -33.389572
 C         -41.012135     -110.428360      -32.515560
 H         -37.668724     -109.475998      -32.782314
 H         -38.397152     -110.623840      -33.940750
 H         -40.790409     -107.829269      -34.915867
 H         -40.462120     -109.580978      -35.265305
 H         -39.642422     -109.525299      -31.218870
 H         -39.218281     -111.203568      -31.559847
 H         -42.313976     -109.585419      -33.931576
 H         -41.588219     -108.398567      -32.691452
 H         -41.689003     -110.594284      -31.762365
 H         -41.109753     -111.331886      -33.255276
