20
 generated by VMD
 C         -29.386671      -89.676208      -25.127523
 N         -29.280710      -88.857109      -25.901310
 H         -31.835205      -90.710670      -27.280167
 H         -29.423769      -90.305511      -24.250135
 C         -32.843941      -90.521034      -27.592333
 C         -34.048489      -90.833412      -26.764967
 C         -32.849892      -89.495316      -28.561497
 C         -34.658836      -89.559258      -26.260805
 C         -33.659180      -88.224701      -28.105722
 C         -34.968178      -88.517792      -27.396118
 H         -33.774567      -91.581650      -25.975885
 H         -34.821609      -91.435616      -27.447102
 H         -31.845474      -89.089142      -28.788612
 H         -33.273422      -89.759071      -29.528013
 H         -34.000446      -89.077820      -25.472864
 H         -35.622860      -89.801598      -25.829275
 H         -33.801739      -87.618782      -29.030321
 H         -32.929482      -87.601929      -27.502945
 H         -35.520432      -87.552628      -27.069082
 H         -35.702557      -88.964737      -28.071760
