20
 generated by VMD
 C         -58.480583     -151.974823      -49.503292
 N         -59.644264     -152.215088      -49.253407
 H         -56.071556     -149.955261      -48.308865
 H         -57.435913     -151.894623      -49.672604
 C         -55.193390     -149.636459      -48.772831
 C         -54.283852     -150.696808      -49.463593
 C         -54.821629     -148.180649      -48.899666
 C         -54.216484     -150.404633      -50.915314
 C         -54.762398     -147.961319      -50.509979
 C         -53.857735     -148.945404      -51.198490
 H         -54.686100     -151.711563      -49.199909
 H         -53.205620     -150.424789      -49.043892
 H         -55.558338     -147.485336      -48.454571
 H         -53.878819     -147.921646      -48.401440
 H         -55.138981     -150.622437      -51.454174
 H         -53.423115     -151.031891      -51.406837
 H         -54.453781     -147.013733      -50.795647
 H         -55.861389     -147.948288      -50.884533
 H         -53.786549     -148.819382      -52.301994
 H         -52.909492     -148.733002      -50.846306
