20
 generated by VMD
 C         -11.082976      -34.811077       -9.196586
 N         -10.604590      -35.309418       -8.284980
 H         -12.267372      -36.983368       -7.370171
 H         -13.339128      -37.061779       -6.092633
 C         -13.091224      -37.636887       -6.974053
 C         -12.628597      -39.062363       -6.737616
 C         -14.315512      -37.598537       -7.955978
 C         -13.804353      -39.959309       -6.241530
 C         -15.451890      -38.660473       -7.605783
 C         -14.850101      -40.029865       -7.349820
 H         -11.811193      -39.087132       -6.035863
 H         -12.203424      -39.509842       -7.604000
 H         -14.744755      -36.542801       -8.037343
 H         -13.997281      -37.786369       -8.999520
 H         -14.254499      -39.557110       -5.325387
 H         -13.431733      -40.965454       -5.901130
 H         -16.234650      -38.782459       -8.427646
 H         -16.001919      -38.314194       -6.702388
 H         -15.621035      -40.760654       -7.027285
 H         -14.425865      -40.367741       -8.330378
