20
 generated by VMD
 C         -21.508465      -65.736328      -17.024225
 N         -20.968325      -66.343880      -16.168148
 H         -24.460806      -63.903816      -18.352009
 H         -22.084045      -65.554092      -17.937685
 C         -24.478109      -64.947960      -18.377686
 C         -24.564684      -65.366516      -19.891670
 C         -25.359013      -65.643867      -17.391996
 C         -24.187872      -66.880783      -19.895521
 C         -25.091888      -67.200310      -17.615627
 C         -25.271992      -67.545395      -19.038244
 H         -23.965109      -64.706451      -20.570787
 H         -25.536364      -65.111191      -20.129795
 H         -25.179974      -65.404465      -16.380423
 H         -26.408737      -65.363754      -17.596670
 H         -23.202000      -67.055847      -19.394718
 H         -24.044231      -67.166946      -20.973244
 H         -25.733767      -67.716698      -16.913883
 H         -24.042233      -67.375160      -17.231573
 H         -25.352262      -68.605186      -19.298607
 H         -26.253490      -67.146217      -19.351191
