20
 generated by VMD
 C         -60.919872     -154.594620      -51.259987
 N         -61.072865     -154.143921      -52.281422
 H         -57.427750     -153.864609      -52.989983
 H         -60.653107     -154.978271      -50.320316
 C         -56.760445     -153.684784      -52.143440
 C         -57.233997     -153.949463      -50.793839
 C         -55.536087     -152.878220      -52.370556
 C         -56.001255     -154.199829      -49.910416
 C         -54.311199     -153.130768      -51.467648
 C         -54.769653     -153.317123      -49.898033
 H         -57.916664     -154.800522      -50.799831
 H         -57.830460     -153.064560      -50.444649
 H         -55.247532     -152.920273      -53.463566
 H         -55.832657     -151.803513      -52.243473
 H         -55.644367     -155.263672      -50.072720
 H         -56.218777     -154.160889      -48.770145
 H         -53.673988     -152.308365      -51.389404
 H         -53.758274     -154.018234      -51.946411
 H         -54.026745     -153.648331      -49.096992
 H         -54.953575     -152.287552      -49.558739
