20
 generated by VMD
 C         -70.220985     -182.901947      -63.769524
 N         -69.720673     -183.101486      -64.805809
 H         -68.620667     -179.845917      -62.217457
 H         -70.674248     -182.744202      -62.836632
 C         -67.868996     -180.340775      -61.581104
 C         -67.716309     -181.850952      -61.398186
 C         -67.005661     -179.419388      -60.741127
 C         -66.387390     -182.248718      -60.926285
 C         -65.633369     -179.952911      -60.567150
 C         -65.611816     -181.359924      -59.971092
 H         -68.104904     -182.333832      -62.265709
 H         -68.551132     -182.226151      -60.734097
 H         -66.904655     -178.472031      -61.235638
 H         -67.382072     -179.171326      -59.638607
 H         -65.751495     -182.285034      -61.964134
 H         -66.377182     -183.308167      -60.420979
 H         -65.123863     -179.257690      -59.909328
 H         -65.166092     -180.042801      -61.564541
 H         -64.603966     -181.587006      -59.938488
 H         -66.107399     -181.367569      -58.955276
