20
 generated by VMD
 C         -70.558380     -196.799271      -66.315308
 N         -69.725113     -196.197189      -65.837791
 H         -73.354736     -194.893082      -64.486076
 H         -71.511589     -197.165146      -66.668030
 C         -73.462509     -194.567322      -65.499283
 C         -72.422554     -193.585831      -66.046577
 C         -74.213242     -195.333694      -66.491791
 C         -72.939377     -192.843643      -67.268707
 C         -73.531822     -195.194138      -67.940155
 C         -73.456009     -193.725754      -68.392334
 H         -71.512566     -194.108017      -66.180733
 H         -72.036118     -192.923721      -65.181526
 H         -74.212769     -196.438354      -66.381386
 H         -75.154129     -194.862335      -66.738907
 H         -72.297615     -192.049805      -67.691635
 H         -73.775864     -192.241150      -66.916977
 H         -74.212616     -195.728485      -68.672729
 H         -72.606934     -195.736618      -67.975876
 H         -72.746918     -193.682770      -69.281952
 H         -74.426964     -193.467972      -68.790398
