20
 generated by VMD
 C         -38.216877      -98.914421      -27.291433
 N         -37.605728      -98.675781      -26.337582
 H         -36.967529      -96.859131      -29.727900
 H         -38.717892      -99.040710      -28.302893
 C         -35.922413      -96.759140      -29.958883
 C         -35.567680      -97.356979      -31.290007
 C         -34.845852      -95.890251      -29.211912
 C         -34.557114      -96.508965      -32.127190
 C         -34.159294      -94.981606      -30.177940
 C         -33.557148      -95.716019      -31.385887
 H         -36.473221      -97.453819      -31.886232
 H         -35.064976      -98.330948      -31.106455
 H         -35.335037      -95.173012      -28.543531
 H         -34.282661      -96.609245      -28.622259
 H         -35.036724      -95.782402      -32.795780
 H         -34.029819      -97.154709      -32.841476
 H         -33.403786      -94.393700      -29.598927
 H         -34.968502      -94.296211      -30.579363
 H         -33.076271      -94.913368      -32.029438
 H         -32.697361      -96.179626      -30.991915
