20
 generated by VMD
 C         -68.968307     -184.815247      -66.483925
 N         -69.505638     -185.405457      -67.322594
 H         -69.842712     -182.966476      -63.268394
 H         -68.614555     -184.284332      -65.662544
 C         -69.190727     -183.453720      -62.496048
 C         -69.824097     -184.577652      -61.788807
 C         -68.064232     -182.684067      -61.825146
 C         -68.803085     -185.662643      -61.314854
 C         -67.093605     -183.674850      -61.233330
 C         -67.684952     -184.834991      -60.456100
 H         -70.587654     -185.048340      -62.459854
 H         -70.402664     -184.402679      -60.903610
 H         -67.640503     -182.093475      -62.617592
 H         -68.380318     -181.913513      -61.003098
 H         -68.195198     -186.055878      -62.068062
 H         -69.275375     -186.487488      -60.830704
 H         -66.344345     -183.041367      -60.765854
 H         -66.600273     -184.261719      -62.000114
 H         -66.880966     -185.698120      -60.355042
 H         -68.140556     -184.641953      -59.485611
