20
 generated by VMD
 C         -39.050716     -112.349968      -35.884235
 N         -38.496223     -111.705589      -36.639324
 H         -40.609020     -114.733620      -34.980812
 H         -39.652187     -112.708817      -35.008045
 C         -41.430862     -114.144188      -35.508011
 C         -41.739063     -114.370773      -36.930714
 C         -42.287865     -113.183960      -34.690514
 C         -43.236694     -114.485840      -37.252094
 C         -43.788811     -113.461189      -34.908577
 C         -44.101475     -113.447899      -36.348389
 H         -41.216244     -115.354485      -37.081841
 H         -41.303097     -113.533348      -37.487206
 H         -41.945637     -113.285179      -33.653309
 H         -41.967766     -112.250214      -35.141930
 H         -43.623714     -115.396431      -36.763393
 H         -43.480015     -114.429474      -38.293629
 H         -44.437447     -112.824921      -34.270668
 H         -43.839237     -114.491821      -34.478130
 H         -45.152939     -113.772667      -36.645622
 H         -43.800137     -112.491165      -36.824387
