20
 generated by VMD
 C         -21.856380      -55.590492      -17.572905
 N         -20.822220      -55.621494      -18.137024
 H         -22.229702      -57.433681      -14.871802
 H         -23.017803      -55.632412      -17.468861
 C         -21.762531      -58.385502      -14.728184
 C         -21.491909      -58.864624      -13.305726
 C         -21.636465      -59.470390      -15.845862
 C         -21.029776      -60.306061      -13.206643
 C         -20.224520      -60.055786      -15.709225
 C         -20.031435      -60.761814      -14.331377
 H         -22.362680      -58.570053      -12.613955
 H         -20.613396      -58.251572      -13.024047
 H         -22.434074      -60.193089      -15.890370
 H         -21.662771      -59.024197      -16.826260
 H         -21.929405      -60.852310      -13.368695
 H         -20.668541      -60.576321      -12.245147
 H         -19.508419      -59.209511      -15.837277
 H         -19.873503      -60.613754      -16.568680
 H         -20.023827      -61.900829      -14.425787
 H         -19.020027      -60.398441      -14.057563
