20
 generated by VMD
 C         -78.906723     -209.347427      -76.524399
 N         -79.686218     -208.899734      -77.232628
 H         -77.662315     -209.300064      -73.240211
 H         -78.233101     -209.892914      -75.970390
 C         -77.991714     -209.835098      -72.353889
 C         -76.998512     -210.214142      -71.342590
 C         -79.096519     -210.809418      -72.573639
 C         -77.454353     -210.861053      -70.039925
 C         -79.597443     -211.623688      -71.307365
 C         -78.310440     -212.080841      -70.383652
 H         -76.515732     -209.232880      -71.145782
 H         -76.106842     -210.812714      -71.755180
 H         -79.891563     -210.167267      -73.012878
 H         -78.813171     -211.568069      -73.282043
 H         -77.988014     -210.114944      -69.422478
 H         -76.613945     -211.148743      -69.379295
 H         -80.199829     -212.560303      -71.469238
 H         -80.077095     -210.907242      -70.729668
 H         -78.674408     -212.353897      -69.387375
 H         -77.809471     -212.981857      -70.706070
