20
 generated by VMD
 C          -9.199253      -23.992674        2.110896
 N          -8.975359      -25.037979        2.396581
 H          -7.678378      -23.380455       -0.810987
 H          -8.921658      -22.739235       -2.104001
 C          -7.839858      -23.041725       -1.876393
 C          -7.644404      -24.225046       -2.888045
 C          -7.032452      -21.788568       -2.154328
 C          -7.571082      -23.710608       -4.357719
 C          -6.946564      -21.392509       -3.682081
 C          -6.601339      -22.590868       -4.553627
 H          -8.454105      -24.965216       -2.764458
 H          -6.670682      -24.646311       -2.618322
 H          -7.271257      -20.954090       -1.462212
 H          -5.992496      -21.990850       -1.871178
 H          -8.590291      -23.350975       -4.657690
 H          -7.394867      -24.562719       -4.981195
 H          -6.278080      -20.513208       -3.861153
 H          -7.932589      -21.015869       -3.988456
 H          -6.542848      -22.312424       -5.609746
 H          -5.618856      -22.918524       -4.370918
