20
 generated by VMD
 C          -0.900965      -13.420570        0.861154
 N          -0.290909      -13.234912       -0.084778
 H          -4.599817      -13.254694        2.064400
 H          -5.680386      -13.530663        0.706888
 C          -5.268680      -13.975855        1.579507
 C          -6.398532      -14.488332        2.466675
 C          -4.360842      -15.148839        1.052505
 C          -7.141583      -15.632840        1.841179
 C          -5.275264      -16.208693        0.383197
 C          -6.258083      -16.766705        1.413775
 H          -7.052064      -13.650291        2.533662
 H          -5.955677      -14.740225        3.398690
 H          -3.605223      -14.697727        0.423130
 H          -3.906965      -15.605091        1.954284
 H          -7.672425      -15.235164        0.954795
 H          -7.889921      -15.983581        2.548241
 H          -4.670923      -17.018097        0.001142
 H          -5.769757      -15.745987       -0.495236
 H          -6.873422      -17.504297        0.903993
 H          -5.770251      -17.243057        2.257463
