20
 generated by VMD
 C         -80.441628     -205.610565      -72.125435
 N         -79.964607     -206.652298      -72.077522
 H         -76.585426     -204.915878      -72.328178
 H         -81.093849     -204.693146      -72.052460
 C         -76.246674     -204.694183      -71.311485
 C         -75.089172     -203.716629      -71.235825
 C         -76.298660     -206.074753      -70.588432
 C         -74.465096     -203.784821      -69.831078
 C         -75.580238     -206.022949      -69.224739
 C         -74.261681     -205.223404      -69.278320
 H         -75.365097     -202.694778      -71.557777
 H         -74.369255     -204.111481      -71.937691
 H         -77.361366     -206.421463      -70.732506
 H         -75.639618     -206.631592      -71.300537
 H         -74.971519     -203.089813      -69.140221
 H         -73.453339     -203.388748      -69.760704
 H         -75.200081     -207.040695      -68.773155
 H         -76.302406     -205.596405      -68.506310
 H         -73.802498     -205.156189      -68.232521
 H         -73.441589     -205.685104      -69.793533
