20
 generated by VMD
 C         -49.868492     -127.499603      -39.387459
 N         -49.018784     -126.715775      -39.329311
 H         -47.205948     -126.321487      -41.447025
 H         -50.627831     -128.259918      -39.491917
 C         -46.273346     -125.690308      -41.204876
 C         -45.115162     -126.237854      -40.378700
 C         -46.702805     -124.198250      -41.186161
 C         -43.953724     -125.286491      -40.652428
 C         -45.501400     -123.402771      -41.384453
 C         -44.221729     -123.795898      -40.612862
 H         -44.780045     -127.216011      -40.651222
 H         -45.414486     -126.336998      -39.286022
 H         -47.366810     -123.818336      -41.992020
 H         -47.368404     -124.022537      -40.342041
 H         -43.610149     -125.562943      -41.689522
 H         -43.068886     -125.475632      -39.992954
 H         -45.678070     -122.381371      -41.319664
 H         -45.167446     -123.449097      -42.425694
 H         -43.314617     -123.230400      -40.942535
 H         -44.367378     -123.504814      -39.602196
