20
 generated by VMD
 C         -27.108213      -72.511597      -17.661716
 N         -27.794394      -73.343414      -17.201557
 H         -24.342167      -70.123093      -18.849890
 H         -26.328960      -71.744446      -18.017838
 C         -24.760828      -70.431229      -19.831553
 C         -24.297001      -71.752731      -20.369282
 C         -25.684343      -69.475555      -20.559435
 C         -25.270273      -72.249763      -21.295559
 C         -26.580673      -70.083199      -21.731243
 C         -25.878119      -71.328461      -22.337944
 H         -24.120668      -72.465088      -19.443932
 H         -23.303726      -71.429398      -20.776114
 H         -26.405975      -69.109673      -19.835943
 H         -24.972136      -68.630615      -20.835747
 H         -26.092501      -72.781120      -20.775589
 H         -24.854101      -72.978279      -21.955145
 H         -26.939465      -69.299583      -22.512739
 H         -27.545286      -70.470428      -21.184092
 H         -26.586792      -71.998589      -22.821924
 H         -25.041683      -71.060875      -22.939211
