20
 generated by VMD
 C         -23.393284      -54.034725      -14.903467
 N         -24.293089      -53.449905      -15.264886
 H         -20.000431      -54.833519      -15.570910
 H         -22.508173      -54.649281      -14.409609
 C         -19.284100      -55.148396      -14.846265
 C         -19.043325      -54.421242      -13.590341
 C         -19.044765      -56.639160      -14.938781
 C         -18.378716      -55.140526      -12.375486
 C         -18.017393      -57.097267      -13.913891
 C         -17.410231      -56.232685      -12.882226
 H         -19.986031      -53.983360      -13.212373
 H         -18.537647      -53.446056      -13.756304
 H         -19.968784      -57.096321      -14.756970
 H         -18.834883      -56.895943      -16.027386
 H         -19.145914      -55.625729      -11.776156
 H         -17.879410      -54.350739      -11.772818
 H         -17.232025      -57.652897      -14.422692
 H         -18.491617      -57.883053      -13.241272
 H         -17.098415      -56.845753      -12.025900
 H         -16.551067      -55.697517      -13.365120
