20
 generated by VMD
 C         -61.173138     -172.269363      -55.120129
 N         -60.327538     -173.066864      -55.037785
 H         -62.295441     -170.528885      -57.991989
 H         -62.050705     -171.669724      -55.065773
 C         -63.059540     -169.879562      -57.489147
 C         -62.597820     -168.497971      -57.591957
 C         -64.443604     -170.256607      -57.384708
 C         -63.316315     -167.762650      -58.675819
 C         -65.288544     -169.624542      -58.533775
 C         -64.811790     -168.064850      -58.811668
 H         -61.521832     -168.470901      -57.802345
 H         -62.793457     -167.933609      -56.639393
 H         -64.478317     -171.300247      -57.582119
 H         -64.987106     -169.939789      -56.480663
 H         -62.680759     -168.028122      -59.550266
 H         -63.166103     -166.712036      -58.545456
 H         -66.374893     -169.755463      -58.206734
 H         -65.052299     -170.279694      -59.466507
 H         -65.246872     -167.774887      -59.747135
 H         -65.371613     -167.574036      -58.046688
