20
 generated by VMD
 C         -62.038471     -172.334747      -54.934704
 N         -61.065529     -172.958817      -55.264755
 H         -61.835781     -170.879089      -57.539089
 H         -63.004631     -171.852585      -54.648331
 C         -62.648663     -170.207947      -57.900726
 C         -62.423149     -168.811035      -57.968788
 C         -63.950256     -170.853165      -58.019505
 C         -63.553970     -167.917114      -58.561302
 C         -65.110649     -169.895432      -58.623901
 C         -64.977173     -168.369461      -58.208370
 H         -61.474846     -168.557251      -58.483982
 H         -62.287872     -168.475479      -56.916721
 H         -63.957935     -171.809280      -58.627216
 H         -64.222794     -171.141205      -57.021404
 H         -63.441948     -167.817566      -59.690201
 H         -63.320877     -166.890762      -58.018562
 H         -66.050606     -170.309570      -58.274319
 H         -65.030991     -169.944748      -59.692097
 H         -65.827377     -167.772141      -58.671169
 H         -65.213882     -168.357162      -57.152290
