20
 generated by VMD
 C         -70.041801     -184.090179      -65.962265
 N         -69.020660     -183.849365      -66.433189
 H         -69.354309     -184.327103      -63.401917
 H         -71.042313     -184.221466      -65.504028
 C         -68.801407     -183.884918      -62.573601
 C         -69.041641     -184.673874      -61.289669
 C         -67.979111     -182.684341      -62.508400
 C         -67.832504     -184.734543      -60.446289
 C         -66.935608     -182.514191      -61.441399
 C         -67.420135     -183.260559      -60.190193
 H         -69.325981     -185.677048      -61.504883
 H         -69.879852     -184.112823      -60.808437
 H         -67.391899     -182.641418      -63.519211
 H         -68.717903     -181.884933      -62.483540
 H         -67.069641     -185.258774      -61.048374
 H         -67.908569     -185.290329      -59.481857
 H         -66.768692     -181.440750      -61.079102
 H         -65.994476     -182.998291      -61.831062
 H         -66.561722     -183.297684      -59.493923
 H         -68.209335     -182.749512      -59.576977
