20
 generated by VMD
 C         -31.090816      -77.442734      -25.099424
 N         -32.078152      -77.052109      -25.684317
 H         -29.082745      -76.864700      -22.283636
 H         -30.096275      -77.699135      -24.948519
 C         -28.633026      -77.867027      -22.351700
 C         -27.421551      -77.971634      -23.259418
 C         -28.929293      -78.807243      -21.237288
 C         -26.305311      -78.687965      -22.517797
 C         -27.745388      -79.717293      -20.745199
 C         -26.743088      -79.958672      -21.835426
 H         -27.163864      -76.982254      -23.633209
 H         -27.634369      -78.566772      -24.161924
 H         -29.441549      -78.246048      -20.355671
 H         -29.722189      -79.503670      -21.483582
 H         -25.813190      -78.030739      -21.790854
 H         -25.558664      -78.980240      -23.263449
 H         -28.314009      -80.703712      -20.376564
 H         -27.251217      -79.222176      -19.851557
 H         -25.862001      -80.350807      -21.273533
 H         -27.047142      -80.806282      -22.382750
