20
 generated by VMD
 C         -14.482968      -45.466736       -6.178547
 N         -14.519079      -46.052284       -7.114502
 H         -15.375287      -44.143639       -9.066297
 H         -14.397020      -44.245693      -10.588166
 C         -15.391137      -44.351383      -10.114432
 C         -16.454176      -43.385887      -10.698700
 C         -15.893693      -45.751263      -10.295514
 C         -16.846237      -43.544106      -12.132894
 C         -16.251616      -46.008263      -11.787939
 C         -17.236773      -44.989647      -12.346362
 H         -16.038803      -42.361816      -10.617931
 H         -17.381626      -43.523178      -10.087005
 H         -15.114427      -46.353767       -9.882015
 H         -16.851721      -45.916222       -9.785123
 H         -16.020639      -43.314392      -12.801412
 H         -17.721643      -42.908924      -12.368892
 H         -16.529957      -47.028851      -11.944110
 H         -15.306764      -45.881138      -12.347203
 H         -17.452795      -45.249920      -13.344028
 H         -18.240522      -45.036018      -11.937631
