20
 generated by VMD
 C         -79.594086     -206.870987      -73.586220
 N         -80.358131     -206.019241      -73.427498
 H         -78.104057     -205.141510      -70.807587
 H         -78.735947     -207.435349      -73.777962
 C         -77.064262     -205.336014      -70.492027
 C         -76.040627     -204.339493      -70.813538
 C         -76.776695     -206.632950      -69.776787
 C         -74.657600     -204.562119      -70.368813
 C         -75.473457     -206.669937      -69.119087
 C         -74.227730     -206.140442      -69.922791
 H         -76.322205     -203.337006      -70.648170
 H         -75.863014     -204.436905      -71.914688
 H         -77.641502     -206.834000      -69.200523
 H         -76.711555     -207.298492      -70.627563
 H         -74.537712     -204.023758      -69.405380
 H         -73.793533     -204.171753      -70.952980
 H         -75.176636     -207.744781      -68.841896
 H         -75.536934     -206.136307      -68.210289
 H         -73.399910     -206.261963      -69.222099
 H         -73.899635     -206.625198      -70.856750
