20
 generated by VMD
 C         -31.047037      -75.736557      -22.549862
 N         -31.062651      -74.798912      -23.211559
 H         -28.760712      -78.502113      -21.326017
 H         -30.840868      -76.664459      -22.211559
 C         -27.796230      -77.956673      -21.493614
 C         -26.743601      -78.206596      -22.633467
 C         -27.557535      -76.846855      -20.498266
 C         -26.167412      -76.893135      -23.205162
 C         -26.907797      -75.536751      -21.109428
 C         -25.739471      -76.072960      -21.977921
 H         -27.175850      -78.722549      -23.478102
 H         -25.987303      -78.900345      -22.270580
 H         -28.537540      -76.567421      -20.157465
 H         -27.022007      -77.308037      -19.577862
 H         -26.856499      -76.215126      -23.718596
 H         -25.386684      -77.008133      -23.945286
 H         -26.579256      -74.991249      -20.151176
 H         -27.618536      -74.881058      -21.711514
 H         -25.294350      -75.199852      -22.502079
 H         -25.013943      -76.619743      -21.305422
