20
 generated by VMD
 C         -27.676067      -81.496758      -26.837849
 N         -28.271843      -82.041428      -27.654623
 H         -30.814360      -83.565102      -26.031593
 H         -26.957052      -80.966995      -26.282764
 C         -31.202234      -84.276031      -25.273211
 C         -30.603632      -84.222191      -23.840612
 C         -31.691055      -85.688576      -25.810926
 C         -31.796240      -84.764679      -22.965393
 C         -32.796288      -86.013428      -24.778791
 C         -32.324638      -86.053505      -23.372093
 H         -30.380396      -83.219765      -23.635458
 H         -29.713135      -84.902802      -23.811831
 H         -31.820353      -85.694534      -26.925545
 H         -31.019165      -86.506958      -25.620165
 H         -32.647846      -84.065384      -22.870018
 H         -31.347746      -84.936752      -21.951214
 H         -33.256378      -87.033920      -25.110716
 H         -33.669453      -85.257629      -24.814318
 H         -33.242283      -86.382462      -22.723362
 H         -31.580790      -86.865761      -23.214874
