20
 generated by VMD
 C         -68.534882     -185.438354      -67.129494
 N         -67.747543     -184.575699      -67.207024
 H         -68.955666     -188.421387      -64.719933
 H         -69.243980     -186.268951      -67.077011
 C         -69.310905     -188.013626      -63.715557
 C         -69.373718     -186.453903      -63.703705
 C         -70.385254     -188.722198      -62.830856
 C         -69.403404     -185.868591      -62.287586
 C         -70.550209     -188.053680      -61.479061
 C         -70.602875     -186.563660      -61.509022
 H         -70.339020     -186.129211      -64.274925
 H         -68.518074     -186.053345      -64.373734
 H         -71.343422     -188.604919      -63.394539
 H         -70.327332     -189.855209      -62.753544
 H         -69.467239     -184.812820      -62.383301
 H         -68.515015     -186.130692      -61.656162
 H         -69.668060     -188.237762      -60.832882
 H         -71.472878     -188.503433      -61.013367
 H         -71.554443     -186.290207      -61.988022
 H         -70.419731     -186.189026      -60.539665
