20
 generated by VMD
 C         -45.940411     -123.922318      -35.654354
 N         -46.495857     -124.889732      -35.468437
 H         -44.387432     -121.688942      -38.002682
 H         -45.328495     -122.980743      -35.617348
 C         -44.678188     -121.569908      -39.026337
 C         -43.360168     -121.421867      -39.731426
 C         -45.758667     -120.764786      -39.565002
 C         -43.447247     -121.470924      -41.249973
 C         -45.876678     -120.696091      -41.021309
 C         -44.519199     -120.395515      -41.703865
 H         -42.688419     -122.216805      -39.342197
 H         -42.943604     -120.442612      -39.508072
 H         -46.623425     -120.913589      -39.015743
 H         -45.535854     -119.703323      -39.266998
 H         -43.769043     -122.491684      -41.505211
 H         -42.401485     -121.138351      -41.669353
 H         -46.667889     -120.007881      -41.610119
 H         -46.186504     -121.778145      -41.273216
 H         -44.559078     -120.322853      -42.804996
 H         -44.249649     -119.444183      -41.342888
