20
 generated by VMD
 C          -1.241974       -9.760470        1.179057
 N          -1.852230       -9.809612        0.250160
 H          -3.153636      -12.278149        1.242392
 H          -3.803066      -11.876801        2.808254
 C          -3.725672      -12.669238        2.043296
 C          -3.067120      -14.014531        2.477646
 C          -5.066108      -12.991279        1.341370
 C          -3.961915      -14.889586        3.304490
 C          -5.993465      -13.826015        2.204566
 C          -5.284461      -15.152362        2.534166
 H          -2.116560      -13.733935        2.953723
 H          -2.714754      -14.407880        1.578608
 H          -5.620020      -11.994282        1.123113
 H          -4.920556      -13.496175        0.309051
 H          -4.214499      -14.406418        4.287644
 H          -3.491553      -15.906857        3.551044
 H          -6.926563      -13.986094        1.664380
 H          -6.260842      -13.282681        3.074408
 H          -5.929270      -15.850031        3.112902
 H          -5.024380      -15.659887        1.564843
