20
 generated by VMD
 C         -47.505959     -138.191269      -45.764896
 N         -47.172073     -138.047287      -46.856579
 H         -50.570518     -137.550262      -44.850697
 H         -47.817532     -138.610107      -44.791790
 C         -51.416103     -138.200974      -45.008007
 C         -51.505245     -138.909790      -46.242527
 C         -52.604515     -138.005508      -44.141220
 C         -52.659180     -139.911682      -46.384220
 C         -53.715118     -139.038818      -44.382729
 C         -53.992809     -139.243835      -45.816124
 H         -50.619545     -139.487366      -46.466518
 H         -51.788609     -138.121475      -46.982601
 H         -52.251602     -138.026077      -43.085148
 H         -52.967876     -136.965134      -44.419357
 H         -52.521103     -140.727448      -45.739059
 H         -52.663197     -140.137115      -47.439171
 H         -54.691818     -138.690826      -43.980461
 H         -53.426533     -140.042038      -43.933495
 H         -54.795620     -139.981262      -46.026306
 H         -54.266182     -138.336121      -46.332260
