20
 generated by VMD
 C         -31.070784      -79.624237      -26.158043
 N         -30.853281      -78.516754      -26.322557
 H         -28.665716      -81.474899      -25.410042
 H         -31.228558      -80.690239      -26.237703
 C         -28.891117      -81.774239      -24.419491
 C         -27.862604      -81.573135      -23.472944
 C         -29.940212      -82.761978      -24.256157
 C         -28.533628      -81.298180      -22.068249
 C         -30.699495      -82.424088      -22.917341
 C         -29.540905      -82.369888      -21.758343
 H         -27.127722      -80.768288      -23.615725
 H         -27.257376      -82.476761      -23.323044
 H         -30.566568      -82.552818      -25.148434
 H         -29.644247      -83.756271      -24.222332
 H         -28.942633      -80.232094      -22.188677
 H         -27.911837      -81.402679      -21.217543
 H         -31.348114      -83.194122      -22.567287
 H         -31.271130      -81.521011      -23.052874
 H         -29.980360      -82.126686      -20.775192
 H         -29.015959      -83.355713      -21.874687
