20
 generated by VMD
 C         -39.879959     -100.985771      -31.496128
 N         -40.595695     -100.100471      -31.160696
 H         -37.291599     -103.485451      -31.764296
 H         -39.134441     -101.643066      -31.794575
 C         -36.857811     -102.448280      -31.562029
 C         -36.160271     -101.932571      -32.767368
 C         -36.488361     -101.958870      -30.154606
 C         -35.869644     -100.499466      -32.499428
 C         -36.279118     -100.519241      -30.110327
 C         -35.272041     -100.288521      -31.149052
 H         -36.809124     -101.986511      -33.657040
 H         -35.276196     -102.431976      -33.083225
 H         -37.308701     -102.103584      -29.509893
 H         -35.577511     -102.519600      -29.789633
 H         -36.756840      -99.932106      -32.635399
 H         -35.164425     -100.062012      -33.239296
 H         -35.904613     -100.139511      -29.081827
 H         -37.123928      -99.926765      -30.267721
 H         -34.825817      -99.289200      -31.059177
 H         -34.331726     -100.928520      -31.043547
