20
 generated by VMD
 C         -59.552273     -152.142410      -50.758247
 N         -59.366676     -153.069214      -50.012482
 H         -56.510452     -151.221970      -48.411041
 H         -59.630047     -151.283249      -51.409752
 C         -55.922554     -150.881744      -49.263233
 C         -55.127953     -152.015854      -49.808426
 C         -55.477665     -149.466003      -49.235619
 C         -54.472755     -151.599762      -51.192318
 C         -54.813065     -149.173584      -50.558189
 C         -53.744205     -150.216919      -51.019566
 H         -55.818893     -152.934677      -49.980999
 H         -54.389637     -152.318222      -49.027569
 H         -56.364353     -148.883759      -49.097572
 H         -54.834103     -149.300568      -48.333076
 H         -55.344604     -151.364899      -51.814774
 H         -53.856865     -152.378387      -51.720261
 H         -54.512611     -148.212082      -50.455479
 H         -55.667511     -149.108673      -51.330444
 H         -53.243862     -149.917877      -51.942150
 H         -52.799541     -150.366562      -50.351170
