20
 generated by VMD
 C         -28.997400      -88.157631      -25.242252
 N         -28.758673      -87.566307      -26.196356
 H         -31.374365      -89.871986      -27.164177
 H         -29.382126      -88.762093      -24.351830
 C         -32.283764      -89.307785      -26.978489
 C         -32.770493      -89.135986      -25.620483
 C         -33.139690      -89.169151      -28.159569
 C         -33.752560      -88.019951      -25.582743
 C         -33.983494      -87.865082      -28.067760
 C         -34.779209      -87.963242      -26.753239
 H         -31.841171      -89.003510      -25.026621
 H         -33.265171      -90.050728      -25.320496
 H         -32.483154      -89.312126      -29.017090
 H         -33.863701      -90.051857      -28.202688
 H         -33.196854      -87.029358      -25.483055
 H         -34.349316      -88.101227      -24.582098
 H         -34.667171      -87.764420      -28.893660
 H         -33.492420      -86.929932      -27.994680
 H         -35.460991      -87.046257      -26.690392
 H         -35.414391      -88.897873      -26.735285
