20
 generated by VMD
 C         -31.691647      -78.924904      -26.502056
 N         -31.016264      -78.063034      -26.839478
 H         -28.942276      -80.656021      -25.066034
 H         -32.469284      -79.529823      -25.919981
 C         -28.829777      -81.146912      -24.131386
 C         -27.613152      -81.072861      -23.309172
 C         -29.901253      -82.161392      -23.800594
 C         -27.948818      -81.109810      -21.826691
 C         -30.282537      -82.202888      -22.279377
 C         -28.898907      -82.389977      -21.506250
 H         -26.977314      -80.241783      -23.452835
 H         -26.852617      -81.840996      -23.428457
 H         -30.849709      -81.980202      -24.369953
 H         -29.531904      -83.135986      -24.224051
 H         -28.416428      -80.141258      -21.423582
 H         -26.940035      -81.238991      -21.397753
 H         -30.955698      -82.992287      -22.149773
 H         -30.662233      -81.202591      -21.834805
 H         -29.111900      -82.462303      -20.450527
 H         -28.398891      -83.180405      -22.002323
