20
 generated by VMD
 C         -60.434719     -153.307098      -52.042301
 N         -60.376560     -152.477127      -51.291084
 H         -57.407139     -153.755844      -49.850834
 H         -60.509315     -154.174896      -52.663864
 C         -56.546814     -153.214249      -50.216900
 C         -55.279266     -153.540192      -49.599140
 C         -56.694523     -151.877716      -50.883053
 C         -53.974068     -152.813934      -50.080418
 C         -55.429565     -151.513855      -51.620998
 C         -54.194572     -151.459381      -50.617771
 H         -55.318012     -154.681305      -49.592659
 H         -55.359226     -153.135803      -48.535587
 H         -57.558102     -151.875290      -51.507019
 H         -56.924141     -151.074173      -50.140858
 H         -53.363590     -153.377548      -50.817623
 H         -53.359642     -152.793869      -49.238018
 H         -55.655247     -150.671631      -52.204876
 H         -55.175087     -152.420822      -52.367535
 H         -53.418262     -151.163895      -51.252129
 H         -54.315479     -150.572128      -49.904095
