20
 generated by VMD
 C         -59.830967     -152.345474      -51.073204
 N         -60.731022     -153.143555      -51.156166
 H         -56.729141     -152.167007      -48.714817
 H         -59.131107     -151.567184      -50.879574
 C         -55.950691     -151.748962      -49.332127
 C         -54.777897     -152.633240      -49.680122
 C         -55.979069     -150.322723      -49.553986
 C         -54.020123     -152.233109      -51.001789
 C         -55.188034     -150.029785      -50.904877
 C         -53.765705     -150.759628      -50.941570
 H         -55.220596     -153.622040      -49.889359
 H         -54.119045     -152.622192      -48.864750
 H         -57.047188     -149.934479      -49.590160
 H         -55.593941     -149.864044      -48.578609
 H         -54.696590     -152.416321      -51.826515
 H         -53.039471     -152.762848      -51.094627
 H         -54.978176     -148.968384      -51.017391
 H         -55.968018     -150.133621      -51.723114
 H         -53.288929     -150.336502      -51.839161
 H         -53.255123     -150.403275      -50.016228
