20
 generated by VMD
 C         -21.737720      -52.468285      -11.286649
 N         -21.533844      -52.948994      -10.298582
 H         -19.745512      -50.982330      -14.080058
 H         -21.607222      -51.773083      -12.372163
 C         -18.753242      -50.951061      -13.778672
 C         -18.104244      -52.068577      -14.502842
 C         -18.373318      -50.843006      -12.328067
 C         -16.621456      -51.846764      -14.493686
 C         -16.909925      -51.015869      -12.102818
 C         -16.198305      -52.014584      -13.036112
 H         -18.586611      -52.126141      -15.515267
 H         -18.392069      -52.916977      -13.921890
 H         -18.670437      -49.916843      -11.836869
 H         -18.915133      -51.682655      -11.850432
 H         -16.401440      -50.861942      -14.952203
 H         -16.041012      -52.595528      -15.069155
 H         -16.747051      -51.201427      -10.960160
 H         -16.492838      -50.052612      -12.313751
 H         -15.079027      -51.901886      -13.033685
 H         -16.337065      -53.085537      -12.753206
