20
 generated by VMD
 C         -23.754335      -69.421165      -16.826397
 N         -24.111874      -69.895737      -15.846867
 H         -23.891956      -66.548935      -18.958456
 H         -23.354122      -68.990730      -17.743284
 C         -24.340870      -67.538681      -19.309700
 C         -23.899708      -68.193878      -20.508945
 C         -25.856440      -67.448204      -19.277063
 C         -24.614243      -69.591980      -20.738943
 C         -26.615847      -68.729218      -19.663555
 C         -26.135201      -69.471191      -20.886490
 H         -22.839243      -68.311714      -20.344702
 H         -23.987417      -67.459854      -21.455772
 H         -26.038801      -67.077240      -18.274319
 H         -26.175755      -66.696907      -19.881330
 H         -24.257355      -70.203186      -19.882236
 H         -24.074160      -69.959015      -21.652287
 H         -27.727844      -68.649323      -19.767780
 H         -26.622993      -69.545120      -18.896992
 H         -26.596514      -70.513023      -20.862633
 H         -26.397161      -68.860535      -21.775612
