20
 generated by VMD
 C         -58.852829     -152.597290      -50.660992
 N         -59.882160     -152.922012      -50.372936
 H         -56.871185     -151.372971      -48.573853
 H         -57.985584     -152.107788      -50.974163
 C         -56.183746     -151.158234      -49.378517
 C         -55.448769     -152.249496      -50.073799
 C         -55.693756     -149.731323      -49.427834
 C         -54.557823     -151.817932      -51.171143
 C         -54.796333     -149.389740      -50.584644
 C         -53.809460     -150.534317      -50.836018
 H         -56.121216     -152.906998      -50.467430
 H         -54.871620     -152.814896      -49.326595
 H         -56.536133     -149.030914      -49.542229
 H         -55.136189     -149.443863      -48.527817
 H         -55.239643     -151.476501      -51.975750
 H         -53.908600     -152.591324      -51.500309
 H         -54.248272     -148.357239      -50.281132
 H         -55.134315     -149.097412      -51.495037
 H         -53.097137     -150.237518      -51.790741
 H         -53.094116     -150.623093      -50.060993
