20
 generated by VMD
 C         -58.528759     -168.511642      -54.954445
 N         -57.348747     -168.632965      -54.938007
 H         -61.959629     -168.295517      -55.541451
 H         -59.583977     -168.306900      -54.833130
 C         -62.425468     -167.557571      -56.203255
 C         -62.612442     -167.751923      -57.654293
 C         -62.881172     -166.186676      -55.632874
 C         -64.099052     -167.593307      -57.952190
 C         -64.393105     -165.983978      -56.001575
 C         -64.662689     -166.173248      -57.498672
 H         -62.392521     -168.865585      -58.125801
 H         -62.079758     -167.013275      -58.174294
 H         -62.696568     -166.082718      -54.531067
 H         -62.228985     -165.402069      -55.985893
 H         -64.739906     -168.239914      -57.330681
 H         -64.431587     -167.708130      -59.018856
 H         -64.705841     -164.908401      -55.818775
 H         -64.930969     -166.770401      -55.264397
 H         -65.717316     -166.301208      -57.477760
 H         -64.435188     -165.396011      -58.238060
