20
 generated by VMD
 C         -38.451012     -115.226944      -35.464550
 N         -39.216152     -115.288628      -34.612305
 H         -41.478462     -115.725540      -36.968082
 H         -37.540119     -114.989143      -36.067062
 C         -42.459160     -115.491600      -37.110199
 C         -42.945061     -115.319893      -38.513924
 C         -43.431240     -115.279640      -36.050915
 C         -44.206326     -116.152077      -38.798534
 C         -44.735317     -116.067657      -36.285149
 C         -45.227222     -115.740883      -37.746777
 H         -42.105328     -115.670563      -39.172970
 H         -42.985870     -114.240273      -38.651661
 H         -43.163998     -115.489052      -34.988628
 H         -43.600838     -114.171646      -35.905083
 H         -43.896790     -117.239197      -38.731556
 H         -44.704319     -115.954575      -39.702564
 H         -45.605148     -115.884338      -35.535980
 H         -44.666557     -117.200439      -36.286774
 H         -46.152496     -116.269981      -37.917160
 H         -45.296402     -114.604973      -37.650200
