20
 generated by VMD
 C         -50.662529     -129.211960      -42.943439
 N         -50.288940     -128.290009      -42.315105
 H         -48.514576     -127.862808      -40.423286
 H         -51.277767     -129.999298      -43.396744
 C         -47.513680     -127.758369      -40.614105
 C         -46.399616     -128.455582      -40.035049
 C         -47.194351     -126.362419      -41.071796
 C         -45.170742     -128.436249      -41.038853
 C         -45.988857     -126.372910      -41.946598
 C         -44.709301     -127.035828      -41.477581
 H         -46.737816     -129.431412      -39.823429
 H         -46.142544     -127.914261      -39.067795
 H         -48.074852     -126.080383      -41.577427
 H         -46.886841     -125.683197      -40.121544
 H         -45.438412     -129.067810      -41.893734
 H         -44.403118     -129.069183      -40.612560
 H         -45.766136     -125.328316      -42.299004
 H         -46.234089     -126.803734      -42.916492
 H         -43.944378     -126.928673      -42.310963
 H         -44.308224     -126.451065      -40.610859
