20
 generated by VMD
 C         -68.346359     -185.670517      -67.070007
 N         -67.960342     -184.635818      -67.421516
 H         -69.035950     -188.497620      -64.676163
 H         -68.775253     -186.639542      -66.675934
 C         -69.455162     -187.961792      -63.881390
 C         -69.178429     -186.452255      -63.567928
 C         -70.396042     -188.704437      -62.977825
 C         -69.386124     -186.123627      -62.087139
 C         -70.687309     -188.120041      -61.588001
 C         -70.778259     -186.604248      -61.592999
 H         -69.832954     -185.765945      -64.199730
 H         -68.152931     -186.176514      -63.846630
 H         -71.391769     -188.619568      -63.499401
 H         -70.119713     -189.831848      -62.882896
 H         -69.372375     -185.078049      -61.751259
 H         -68.486145     -186.528381      -61.526726
 H         -69.822937     -188.484802      -60.946465
 H         -71.684235     -188.471497      -61.238258
 H         -71.665306     -186.307739      -62.068893
 H         -70.870819     -186.320190      -60.534752
