20
 generated by VMD
 C         -59.472576     -158.210587      -56.975384
 N         -58.514175     -158.570145      -57.602692
 H         -60.507126     -158.215530      -53.456947
 H         -60.370556     -157.828781      -56.437546
 C         -60.016033     -159.083923      -53.004658
 C         -58.567581     -159.040344      -52.451996
 C         -60.752102     -160.393875      -53.245010
 C         -58.206459     -160.133652      -51.352226
 C         -60.325806     -161.374985      -52.146545
 C         -58.800915     -161.467728      -51.807861
 H         -58.482834     -158.024918      -51.963501
 H         -57.960617     -159.284439      -53.322544
 H         -61.886272     -160.210480      -53.276882
 H         -60.478886     -160.783005      -54.212910
 H         -58.817909     -159.956177      -50.476337
 H         -57.195236     -160.037308      -51.065750
 H         -60.817432     -162.329773      -52.491508
 H         -60.764832     -161.107513      -51.157631
 H         -58.646301     -162.061005      -50.972488
 H         -58.214214     -161.977768      -52.497448
