20
 generated by VMD
 C         -69.284981     -194.549454      -64.923569
 N         -68.396317     -193.856049      -65.217018
 H         -71.037750     -194.364410      -67.122078
 H         -70.080765     -195.255676      -64.695778
 C         -71.924423     -193.687225      -67.037842
 C         -71.680672     -192.247620      -66.669991
 C         -73.323990     -194.113419      -67.212219
 C         -72.485909     -192.025528      -65.471481
 C         -74.319412     -192.982635      -66.984100
 C         -74.004013     -192.268356      -65.726540
 H         -72.122154     -191.637161      -67.588043
 H         -70.627487     -191.855209      -66.601730
 H         -73.522942     -194.667679      -68.186653
 H         -73.593513     -194.986298      -66.443436
 H         -72.366821     -191.039642      -65.027443
 H         -72.210968     -192.683945      -64.617561
 H         -75.357475     -193.417633      -67.139854
 H         -74.214928     -192.262466      -67.789207
 H         -74.536072     -191.263031      -65.754395
 H         -74.467186     -192.753296      -64.892624
