20
 generated by VMD
 C         -46.707291     -124.676781      -37.255016
 N         -46.934490     -124.809631      -36.097309
 H         -44.581501     -121.835701      -37.794434
 H         -46.580864     -124.445816      -38.273335
 C         -44.610924     -121.895485      -38.850067
 C         -43.387672     -122.116837      -39.715515
 C         -45.889412     -121.318108      -39.459339
 C         -43.601959     -122.300919      -41.155518
 C         -46.068016     -121.589523      -40.993122
 C         -44.716496     -121.286530      -41.727402
 H         -42.971172     -123.063545      -39.350647
 H         -42.705841     -121.353340      -39.494965
 H         -46.712688     -121.784950      -39.029663
 H         -46.035439     -120.221474      -39.247276
 H         -43.796890     -123.388779      -41.430481
 H         -42.535225     -122.205688      -41.730114
 H         -46.671135     -120.723076      -41.338203
 H         -46.502247     -122.527672      -41.446220
 H         -44.810604     -121.549088      -42.807751
 H         -44.368229     -120.290436      -41.633385
