20
 generated by VMD
 C         -33.634155      -96.659706      -25.862970
 N         -34.715702      -96.572525      -26.254019
 H         -35.291798      -93.983147      -27.412350
 H         -32.563572      -96.672386      -25.427353
 C         -34.948483      -94.182167      -28.412281
 C         -35.978813      -94.815125      -29.380133
 C         -33.625511      -93.841919      -29.001841
 C         -36.078693      -93.939758      -30.672729
 C         -33.756241      -92.931732      -30.230228
 C         -34.672943      -93.725464      -31.161793
 H         -37.012974      -94.843277      -28.978674
 H         -35.740101      -95.826981      -29.567514
 H         -32.962547      -93.424530      -28.253048
 H         -33.174988      -94.784355      -29.265131
 H         -36.619598      -92.983475      -30.422243
 H         -36.596043      -94.513367      -31.462191
 H         -32.656967      -92.832306      -30.622072
 H         -34.236065      -92.011139      -29.987633
 H         -34.874897      -93.108643      -32.194412
 H         -34.418705      -94.662491      -31.472450
