20
 generated by VMD
 C         -11.903273      -41.286762       -7.635592
 N         -11.739696      -40.625416       -6.773631
 H         -13.947490      -40.805000       -8.176095
 H         -15.035813      -40.110771       -9.383357
 C         -14.710779      -41.033092       -8.949704
 C         -15.828116      -41.614349       -8.130692
 C         -14.303061      -42.012897      -10.051164
 C         -16.959135      -42.239120       -8.928354
 C         -15.410501      -42.429466      -10.962103
 C         -16.524599      -43.061783      -10.138719
 H         -16.287035      -40.847282       -7.489208
 H         -15.468007      -42.423615       -7.563543
 H         -13.570483      -41.456142      -10.645174
 H         -13.854191      -42.845348       -9.624294
 H         -17.501728      -41.392483       -9.282832
 H         -17.631319      -42.814705       -8.293117
 H         -15.011524      -43.026348      -11.762257
 H         -15.806831      -41.503208      -11.472502
 H         -17.401649      -43.226433      -10.830976
 H         -16.288029      -44.069057       -9.786648
