20
 generated by VMD
 C         -42.048782     -101.717354      -33.483978
 N         -40.935982     -101.768082      -33.883068
 H         -38.788795     -103.525398      -32.815350
 H         -43.017281     -101.405609      -33.277634
 C         -38.007347     -103.700729      -32.204647
 C         -36.829430     -103.624023      -33.157104
 C         -37.832401     -104.131577      -30.833393
 C         -35.747055     -102.763390      -32.369293
 C         -36.663765     -103.523582      -30.090366
 C         -35.367233     -103.425499      -31.071846
 H         -37.115841     -103.121361      -34.126923
 H         -36.488014     -104.663940      -33.403107
 H         -38.741135     -103.971237      -30.276684
 H         -37.737625     -105.283112      -30.829910
 H         -36.216061     -101.781670      -32.088379
 H         -34.834515     -102.541779      -32.964260
 H         -36.357468     -104.201126      -29.255186
 H         -36.966789     -102.567024      -29.639696
 H         -34.461979     -102.975868      -30.566587
 H         -35.094135     -104.506706      -31.239630
