20
 generated by VMD
 C         -70.206169     -183.776352      -66.116234
 N         -69.088333     -183.543564      -66.186989
 H         -68.598175     -184.542435      -63.467659
 H         -71.203369     -184.064316      -66.056389
 C         -68.341492     -184.249634      -62.481045
 C         -68.868835     -184.807739      -61.187721
 C         -68.154556     -182.647339      -62.546051
 C         -67.790543     -184.347687      -60.175552
 C         -66.943024     -182.436646      -61.571453
 C         -67.240608     -182.921722      -60.192825
 H         -68.959579     -185.910400      -61.375881
 H         -69.867065     -184.440384      -60.898273
 H         -67.927528     -182.352310      -63.543453
 H         -68.957062     -181.998489      -62.066650
 H         -66.837051     -185.001511      -60.311123
 H         -68.242676     -184.585968      -59.167965
 H         -66.808784     -181.407455      -61.626640
 H         -66.039696     -182.907578      -61.860813
 H         -66.519432     -182.711044      -59.347980
 H         -68.134331     -182.201691      -59.884964
