20
 generated by VMD
 C          -6.927267      -23.319767        2.624017
 N          -7.038855      -22.504622        1.869410
 H          -8.284807      -23.082863       -0.857222
 H          -9.181170      -22.429682       -2.153684
 C          -8.182132      -22.467583       -1.713492
 C          -7.231738      -23.170031       -2.656990
 C          -7.587784      -21.072498       -1.298989
 C          -7.006270      -22.375757       -3.945533
 C          -7.366792      -20.200363       -2.566059
 C          -6.521111      -20.955301       -3.637305
 H          -7.736319      -24.097586       -2.921004
 H          -6.246599      -23.408539       -2.258121
 H          -8.284894      -20.559183       -0.674127
 H          -6.676092      -21.293373       -0.703236
 H          -7.940761      -22.285749       -4.474316
 H          -6.243868      -22.922955       -4.464610
 H          -6.876021      -19.299963       -2.247091
 H          -8.358254      -19.958580       -2.947661
 H          -6.495733      -20.419720       -4.578331
 H          -5.508889      -21.048014       -3.274820
