20
 generated by VMD
 C         -27.881193      -86.320557      -26.164227
 N         -28.226330      -86.972664      -27.076601
 H         -30.894421      -86.899673      -25.128277
 H         -27.421381      -85.833336      -25.307531
 C         -31.860130      -87.160042      -25.562914
 C         -32.891403      -87.604141      -24.606152
 C         -32.101036      -87.610977      -26.983349
 C         -34.256519      -87.485260      -25.118168
 C         -33.604347      -87.398911      -27.483564
 C         -34.516239      -88.258148      -26.498089
 H         -32.639797      -87.009888      -23.751324
 H         -32.764988      -88.591286      -24.352581
 H         -31.379957      -86.983253      -27.581347
 H         -31.841724      -88.659920      -27.017921
 H         -34.720970      -86.462349      -25.304625
 H         -35.056393      -87.928978      -24.387257
 H         -33.728050      -87.664642      -28.480896
 H         -33.903221      -86.324547      -27.468178
 H         -35.583977      -88.273048      -26.610168
 H         -34.107452      -89.204300      -26.323807
