20
 generated by VMD
 C         -30.974461      -78.299995      -26.229214
 N         -31.699591      -77.555504      -25.644102
 H         -29.363623      -77.823753      -23.275555
 H         -30.283890      -79.195442      -26.505138
 C         -28.803099      -78.600380      -22.771559
 C         -27.345043      -78.656212      -23.050100
 C         -29.647648      -79.644249      -22.149899
 C         -26.606054      -79.694359      -22.198574
 C         -28.863886      -80.696632      -21.301504
 C         -27.478718      -80.989555      -21.892075
 H         -26.992836      -77.603226      -22.869705
 H         -27.152136      -79.091026      -24.112366
 H         -30.387089      -79.204590      -21.568003
 H         -30.185417      -80.304657      -22.902344
 H         -26.337341      -79.201096      -21.242416
 H         -25.557730      -79.934067      -22.625170
 H         -29.418205      -81.631851      -21.312696
 H         -28.729677      -80.523796      -20.324785
 H         -26.961128      -81.666496      -21.207289
 H         -27.628767      -81.584671      -22.757130
