20
 generated by VMD
 C         -31.283278      -75.755768      -21.614231
 N         -32.321869      -75.248177      -21.304852
 H         -27.764133      -75.275406      -19.931713
 H         -30.281693      -76.170647      -21.859669
 C         -26.842747      -75.237946      -20.463167
 C         -26.425520      -76.328987      -21.406952
 C         -25.937920      -74.084671      -20.435976
 C         -25.940344      -75.879684      -22.720999
 C         -25.327166      -73.622314      -21.802839
 C         -24.857994      -74.804474      -22.605335
 H         -27.467329      -76.916809      -21.594059
 H         -25.586035      -76.949623      -21.041142
 H         -26.351215      -73.272903      -19.906399
 H         -25.059566      -74.307274      -19.749119
 H         -26.831331      -75.625114      -23.278490
 H         -25.482639      -76.769974      -23.196798
 H         -24.525486      -72.974464      -21.511379
 H         -26.100407      -73.199707      -22.420322
 H         -24.539806      -74.385468      -23.580582
 H         -23.944817      -75.316086      -22.327364
