20
 generated by VMD
 C         -12.074253      -37.541672       -7.694409
 N         -11.010302      -37.739250       -7.378735
 H         -12.384759      -41.362381       -8.635839
 H         -13.369930      -40.483463       -7.401160
 C         -13.477109      -41.084267       -8.380301
 C         -14.415528      -42.300087       -8.141206
 C         -14.081306      -40.182537       -9.495587
 C         -15.866154      -41.955181       -7.809684
 C         -15.540445      -39.791260       -9.183083
 C         -16.417915      -41.049873       -8.936182
 H         -13.986147      -42.965939       -7.343922
 H         -14.434152      -43.028275       -8.987041
 H         -13.461538      -39.267902       -9.653941
 H         -13.933899      -40.671089      -10.437984
 H         -15.884797      -41.505707       -6.833676
 H         -16.500526      -42.858631       -7.659809
 H         -15.932734      -39.280212      -10.024495
 H         -15.514140      -39.075985       -8.266302
 H         -17.493481      -40.769859       -8.752133
 H         -16.375875      -41.692020       -9.847363
