20
 generated by VMD
 C         -22.453085      -68.370628      -16.644630
 N         -22.257816      -68.693962      -15.544485
 H         -24.266659      -65.959816      -18.331551
 H         -22.381866      -68.001526      -17.575642
 C         -24.679790      -66.540352      -19.126402
 C         -23.952290      -67.314560      -20.227282
 C         -26.229517      -66.630051      -18.971983
 C         -24.382969      -68.693008      -20.358334
 C         -26.703108      -68.140083      -19.172857
 C         -25.948320      -68.753670      -20.389435
 H         -22.904863      -67.347198      -19.952782
 H         -23.941118      -66.776291      -21.308254
 H         -26.472820      -66.269257      -17.997633
 H         -26.818031      -65.982399      -19.535198
 H         -24.099165      -69.134537      -19.419649
 H         -23.925674      -69.175270      -21.238506
 H         -27.781523      -68.211372      -19.346878
 H         -26.414783      -68.594551      -18.227615
 H         -26.243877      -69.793045      -20.454992
 H         -26.215836      -68.378265      -21.389681
