20
 generated by VMD
 C         -68.834717     -185.865921      -66.156837
 N         -68.599442     -186.139130      -67.272087
 H         -69.281075     -182.904221      -63.514790
 H         -68.867561     -185.637451      -65.115898
 C         -69.369995     -183.761002      -62.747738
 C         -70.390862     -184.822067      -62.695686
 C         -68.025650     -183.871719      -62.091751
 C         -70.058464     -185.725006      -61.515316
 C         -67.700211     -185.174805      -61.328442
 C         -68.634552     -186.295670      -61.544830
 H         -70.210609     -185.418961      -63.646290
 H         -71.375931     -184.322678      -62.679527
 H         -67.228279     -183.912277      -62.893612
 H         -67.914528     -183.045898      -61.403362
 H         -70.857185     -186.528946      -61.449726
 H         -70.238937     -185.096741      -60.612171
 H         -67.658463     -184.929489      -60.264622
 H         -66.631073     -185.430222      -61.529736
 H         -68.333374     -186.882248      -62.559368
 H         -68.446915     -186.965744      -60.730003
