20
 generated by VMD
 C         -27.986357      -87.271095      -27.155760
 N         -27.757477      -86.897774      -26.049166
 H         -31.313696      -88.318291      -25.275227
 H         -28.074936      -87.520737      -28.185884
 C         -32.262783      -88.519745      -25.771198
 C         -33.482647      -88.681358      -24.884836
 C         -32.383255      -88.448174      -27.245310
 C         -34.531685      -87.695404      -25.323654
 C         -33.534840      -87.657677      -27.693478
 C         -34.865398      -87.730225      -26.790140
 H         -33.029308      -88.426773      -23.887054
 H         -34.002579      -89.604141      -25.106716
 H         -31.445339      -87.897461      -27.583416
 H         -32.293320      -89.483704      -27.550947
 H         -34.291344      -86.700851      -24.922089
 H         -35.471977      -87.905304      -24.672384
 H         -33.806599      -88.013962      -28.656828
 H         -33.439304      -86.570198      -27.920593
 H         -35.557541      -86.894676      -26.906969
 H         -35.475121      -88.696793      -26.849176
