20
 generated by VMD
 C         -30.555916      -79.693771      -26.032667
 N         -30.904655      -78.576218      -26.182232
 H         -28.418678      -82.239799      -25.576540
 H         -30.178858      -80.781082      -25.825741
 C         -28.966845      -82.172485      -24.593243
 C         -28.057993      -81.606987      -23.511427
 C         -30.028137      -83.163734      -24.277111
 C         -28.780428      -81.268944      -22.278736
 C         -30.790390      -82.597183      -23.062836
 C         -29.774185      -82.425072      -21.917999
 H         -27.493361      -80.727425      -23.706888
 H         -27.204506      -82.311981      -23.273680
 H         -30.687302      -83.319313      -25.108564
 H         -29.606153      -84.188232      -24.007521
 H         -29.398115      -80.353325      -22.348011
 H         -28.063311      -81.134323      -21.459517
 H         -31.519146      -83.347610      -22.763811
 H         -31.345089      -81.607872      -23.286680
 H         -30.196440      -82.224754      -20.910999
 H         -29.256180      -83.404114      -21.948793
