20
 generated by VMD
 C         -14.112426      -28.155037       -3.311433
 N         -14.051499      -27.216314       -3.904725
 H         -10.278385      -28.541895       -2.665809
 H          -9.910067      -27.379248       -4.011874
 C          -9.489655      -28.111910       -3.315952
 C          -8.933034      -29.169012       -4.254013
 C          -8.400053      -27.569954       -2.497220
 C          -7.790769      -28.692249       -5.080923
 C          -7.266170      -26.990791       -3.373510
 C          -6.687702      -28.069290       -4.261621
 H          -9.746695      -29.553303       -4.846172
 H          -8.700080      -30.124800       -3.643580
 H          -8.834544      -26.834017       -1.781088
 H          -7.931589      -28.345882       -1.854480
 H          -8.048520      -27.935757       -5.802545
 H          -7.445782      -29.472195       -5.721734
 H          -6.515738      -26.456167       -2.808314
 H          -7.753300      -26.159115       -3.982705
 H          -5.909596      -27.647116       -4.945447
 H          -6.243480      -28.758705       -3.526355
