20
 generated by VMD
 C         -59.721825     -157.594101      -56.751209
 N         -59.156712     -158.592606      -56.714291
 H         -60.183945     -157.534042      -53.341499
 H         -60.209141     -156.659500      -56.695049
 C         -59.813217     -158.392929      -52.745403
 C         -58.375778     -158.303543      -52.263283
 C         -60.299427     -159.846588      -52.976486
 C         -57.842171     -159.350601      -51.309818
 C         -59.612190     -160.869202      -52.101078
 C         -58.187695     -160.635101      -51.845428
 H         -58.275051     -157.371155      -51.832035
 H         -57.790443     -158.315491      -53.173836
 H         -61.377476     -159.947784      -52.771362
 H         -60.185051     -160.057007      -54.129940
 H         -58.229790     -159.251099      -50.193600
 H         -56.843422     -159.060364      -51.214062
 H         -59.731445     -161.740982      -52.775238
 H         -60.071968     -161.249512      -51.141487
 H         -57.652668     -161.458099      -51.217621
 H         -57.678181     -160.837936      -52.758614
