20
 generated by VMD
 C         -59.028751     -158.816971      -57.340393
 N         -58.825081     -158.165237      -58.234203
 H         -59.750286     -159.293884      -54.218876
 H         -59.262806     -159.480515      -56.539665
 C         -59.612007     -160.142349      -53.585712
 C         -58.541172     -160.272690      -52.624752
 C         -60.571903     -161.275055      -53.718403
 C         -59.004452     -160.742111      -51.182476
 C         -61.031971     -161.574905      -52.269642
 C         -59.817028     -161.921494      -51.420986
 H         -58.003452     -159.273926      -52.565479
 H         -57.655701     -160.989548      -52.908031
 H         -61.413769     -160.853394      -54.390747
 H         -60.130745     -162.136658      -54.129597
 H         -59.594521     -159.905502      -50.791931
 H         -58.089352     -161.039688      -50.707733
 H         -61.703411     -162.399872      -52.226974
 H         -61.603046     -160.751114      -51.865993
 H         -60.092533     -162.258789      -50.405640
 H         -59.096489     -162.593430      -52.017605
