20
 generated by VMD
 C         -49.353630     -132.389862      -46.745880
 N         -50.291862     -131.960587      -47.188850
 H         -47.375504     -134.174301      -43.871464
 H         -48.569675     -133.063522      -46.418827
 C         -48.366253     -134.535217      -43.542145
 C         -49.096806     -135.799927      -43.880455
 C         -49.245571     -133.468155      -43.106041
 C         -49.882977     -136.282700      -42.729000
 C         -50.148937     -133.808136      -41.893883
 C         -50.810242     -135.224976      -42.091660
 H         -48.371284     -136.600128      -44.208820
 H         -49.757851     -135.648529      -44.695442
 H         -48.576302     -132.625748      -42.835033
 H         -49.807205     -133.120605      -43.920029
 H         -49.374916     -136.639557      -41.880310
 H         -50.571934     -137.055923      -42.965111
 H         -50.903187     -133.059280      -41.604931
 H         -49.320137     -133.794662      -41.078472
 H         -51.238686     -135.516098      -41.042961
 H         -51.554939     -134.917328      -42.774036
