20
 generated by VMD
 C         -23.009237      -53.534397      -13.669519
 N         -23.562923      -52.769657      -14.433068
 H         -20.764755      -54.965706      -14.492872
 H         -22.543951      -54.235451      -13.218664
 C         -19.670202      -54.959484      -14.002753
 C         -19.144442      -53.542294      -13.775032
 C         -18.694963      -56.075130      -14.313343
 C         -17.820778      -53.564884      -12.860480
 C         -17.480356      -56.059467      -13.391975
 C         -16.877594      -54.628174      -13.378128
 H         -19.875580      -52.911335      -13.271080
 H         -18.876686      -53.185925      -14.765152
 H         -19.306721      -57.010292      -14.269673
 H         -18.363245      -55.953171      -15.354319
 H         -18.122007      -53.688858      -11.822412
 H         -17.254101      -52.605072      -12.862351
 H         -16.694355      -56.691505      -13.896885
 H         -17.675406      -56.473072      -12.427867
 H         -15.903075      -54.638401      -12.851890
 H         -16.513548      -54.320412      -14.413424
