20
 generated by VMD
 C         -11.531504      -33.565022       -9.010768
 N         -10.448499      -33.243763       -8.817329
 H         -12.275544      -35.055435       -7.481669
 H         -12.855781      -35.025673       -5.770764
 C         -12.664121      -35.650478       -6.629193
 C         -11.605887      -36.767288       -6.427605
 C         -14.012709      -36.213219       -7.059204
 C         -12.133208      -37.814793       -5.369103
 C         -14.543200      -37.104652       -5.970584
 C         -13.545000      -38.211243       -5.617211
 H         -10.674625      -36.282837       -6.070294
 H         -11.356939      -37.304348       -7.385792
 H         -14.728543      -35.451298       -7.319629
 H         -13.922755      -36.801662       -8.019300
 H         -12.086760      -37.236530       -4.449842
 H         -11.351273      -38.637341       -5.374761
 H         -15.529503      -37.521305       -6.219615
 H         -14.754020      -36.464966       -5.082011
 H         -13.892321      -38.857441       -4.835316
 H         -13.653500      -38.855461       -6.492442
