20
 generated by VMD
 C         -10.406772      -33.089092       -8.992342
 N         -11.134475      -33.825073       -9.354066
 H         -12.966484      -34.027416       -6.288530
 H         -13.126980      -34.574615       -4.611074
 C         -13.025823      -34.935322       -5.677785
 C         -11.690595      -35.601440       -6.006457
 C         -14.316531      -35.752609       -6.112752
 C         -11.611969      -36.978725       -5.540143
 C         -14.146442      -37.224903       -5.844454
 C         -12.755121      -37.812378       -6.179073
 H         -10.929804      -35.046310       -5.357685
 H         -11.367389      -35.437626       -7.044016
 H         -15.140893      -35.262707       -5.587727
 H         -14.586611      -35.553890       -7.153183
 H         -11.739248      -37.046612       -4.439268
 H         -10.661982      -37.474178       -5.722412
 H         -14.898190      -37.801746       -6.325743
 H         -14.357608      -37.399471       -4.701600
 H         -12.584671      -38.873024       -5.841668
 H         -12.640868      -37.846966       -7.246067
