20
 generated by VMD
 C         -49.977818     -143.312576      -44.622890
 N         -49.174774     -143.434845      -45.461300
 H         -52.040398     -140.747681      -45.665676
 H         -50.577686     -143.108810      -43.737415
 C         -52.705803     -141.211487      -46.344284
 C         -52.111572     -141.510193      -47.710278
 C         -54.104588     -141.088837      -46.154709
 C         -53.074463     -142.225388      -48.617023
 C         -55.047337     -141.871124      -47.084839
 C         -54.520809     -141.640198      -48.489864
 H         -51.160641     -142.099930      -47.532635
 H         -51.719337     -140.578964      -48.169437
 H         -54.398006     -141.270844      -45.096718
 H         -54.439671     -139.966309      -46.212608
 H         -53.082031     -143.218765      -48.537598
 H         -52.642311     -141.973785      -49.566189
 H         -56.142666     -141.616745      -46.955696
 H         -54.946785     -142.911560      -46.931477
 H         -55.112213     -142.268204      -49.108364
 H         -54.495583     -140.599869      -48.580479
