20
 generated by VMD
 C         -39.570721     -105.513908      -37.317051
 N         -40.363628     -104.733681      -36.959454
 H         -39.111645     -108.917679      -35.427269
 H         -38.893147     -106.375168      -37.376240
 C         -39.430950     -108.686119      -34.376297
 C         -38.454628     -108.319664      -33.371429
 C         -40.644989     -109.520576      -33.994099
 C         -38.924301     -108.234055      -31.926510
 C         -41.009846     -109.451523      -32.523079
 C         -39.737991     -109.569046      -31.678415
 H         -38.108990     -107.332184      -33.555939
 H         -37.609528     -108.997116      -33.384666
 H         -41.598564     -109.061913      -34.483372
 H         -40.506451     -110.534538      -34.494900
 H         -39.647850     -107.322571      -31.876530
 H         -38.041267     -107.947044      -31.306921
 H         -41.669479     -110.256584      -32.324436
 H         -41.608673     -108.604767      -32.179459
 H         -39.943932     -109.519508      -30.661324
 H         -39.086197     -110.522095      -31.868372
