20
 generated by VMD
 C         -28.276661      -84.660454      -26.179153
 N         -28.196846      -83.999870      -27.133646
 H         -31.276699      -84.594177      -26.191355
 H         -28.490231      -85.230171      -25.197577
 C         -31.574280      -85.536667      -25.750645
 C         -31.505363      -85.734840      -24.389193
 C         -31.913097      -86.537788      -26.683735
 C         -32.924812      -86.115570      -23.953367
 C         -33.239670      -87.203590      -26.332272
 C         -33.412384      -87.360176      -24.781433
 H         -31.105495      -84.893326      -23.807209
 H         -30.959318      -86.611183      -24.090578
 H         -31.817272      -86.137917      -27.728676
 H         -31.050873      -87.210228      -26.538061
 H         -33.592499      -85.332535      -24.212315
 H         -32.825222      -86.520149      -22.879890
 H         -33.213776      -88.150215      -26.916191
 H         -34.067646      -86.580154      -26.636017
 H         -34.403210      -87.530746      -24.470688
 H         -32.860470      -88.214851      -24.494877
