20
 generated by VMD
 C         -38.551510     -108.104088      -36.795319
 N         -38.012882     -108.802902      -37.515572
 H         -41.529144     -109.106415      -35.953522
 H         -39.268112     -107.569244      -36.213383
 C         -41.335964     -109.845215      -35.124584
 C         -40.501663     -111.096077      -35.383362
 C         -42.478691     -109.771706      -34.035225
 C         -40.292240     -111.885254      -34.062462
 C         -42.161510     -110.762642      -32.854736
 C         -41.552700     -112.055954      -33.220829
 H         -39.441837     -110.923409      -35.728489
 H         -40.916092     -111.772636      -36.224277
 H         -42.557934     -108.740189      -33.602985
 H         -43.424374     -109.989418      -34.436398
 H         -39.514008     -111.326378      -33.551792
 H         -39.763126     -112.956184      -34.180531
 H         -43.110863     -111.004242      -32.329182
 H         -41.478512     -110.223228      -32.227627
 H         -41.136478     -112.546463      -32.236568
 H         -42.231934     -112.691811      -33.821018
