20
 generated by VMD
 C         -28.359108      -82.396164      -26.594503
 N         -27.509222      -83.002144      -27.102255
 H         -31.221348      -83.873360      -26.498188
 H         -29.031919      -81.879631      -26.043068
 C         -31.451561      -84.701851      -25.812811
 C         -30.954430      -84.607262      -24.359909
 C         -32.096020      -86.045082      -26.182621
 C         -32.040836      -85.097504      -23.378471
 C         -33.026035      -86.657677      -25.049500
 C         -32.502293      -86.488228      -23.650276
 H         -30.816658      -83.551704      -24.215200
 H         -29.884365      -85.070663      -24.285187
 H         -32.688835      -85.672455      -27.010632
 H         -31.405289      -86.848404      -26.501230
 H         -32.878857      -84.459610      -23.435059
 H         -31.696646      -85.039734      -22.354559
 H         -33.321983      -87.725098      -25.362965
 H         -33.974827      -86.074150      -25.098064
 H         -33.151096      -86.961945      -23.018496
 H         -31.682524      -87.205429      -23.807508
