20
 generated by VMD
 C         -10.968149      -34.147827       -9.126920
 N         -11.327647      -33.286026       -8.549041
 H         -11.472867      -37.803833       -8.024951
 H         -12.243308      -37.072865       -6.683529
 C         -12.323650      -37.909813       -7.353273
 C         -12.387034      -39.151878       -6.523621
 C         -13.669746      -37.573868       -8.016748
 C         -13.545478      -39.264336       -5.557545
 C         -14.810517      -37.569569       -7.035883
 C         -14.847740      -38.897694       -6.256351
 H         -11.463774      -39.239380       -5.927017
 H         -12.341700      -40.084438       -7.125291
 H         -13.568233      -36.730915       -8.616690
 H         -13.866152      -38.395813       -8.722331
 H         -13.382302      -38.695404       -4.670868
 H         -13.567062      -40.306507       -5.182358
 H         -15.711815      -37.520679       -7.579784
 H         -14.755782      -36.707855       -6.291839
 H         -15.676649      -38.904430       -5.527371
 H         -15.109038      -39.679493       -6.994702
