20
 generated by VMD
 C         -47.122898     -137.759888      -46.221828
 N         -47.211296     -137.028809      -47.105328
 H         -50.657703     -136.451019      -44.890934
 H         -47.142014     -138.480896      -45.455025
 C         -51.325962     -137.287079      -44.707668
 C         -51.404083     -138.067322      -45.992908
 C         -52.562393     -137.146942      -43.887424
 C         -52.131760     -139.379654      -45.840431
 C         -53.362938     -138.565582      -43.768463
 C         -53.564545     -139.179733      -45.182877
 H         -50.352112     -138.296341      -46.375729
 H         -51.932407     -137.526047      -46.677250
 H         -52.259052     -136.894028      -42.849079
 H         -53.256126     -136.372421      -44.345215
 H         -51.454231     -139.829803      -45.075745
 H         -52.291058     -139.927856      -46.767830
 H         -54.345337     -138.271332      -43.437550
 H         -52.734314     -139.256927      -43.145737
 H         -53.819656     -140.228378      -44.938984
 H         -54.175117     -138.640289      -45.786068
