20
 generated by VMD
 C         -60.513180     -153.338394      -52.084618
 N         -60.425911     -152.528870      -51.277733
 H         -57.472454     -153.663223      -49.937912
 H         -60.566551     -153.960678      -52.950390
 C         -56.532097     -153.201614      -50.263142
 C         -55.250999     -153.602081      -49.478077
 C         -56.642895     -151.904938      -50.935299
 C         -54.056526     -152.896027      -49.997814
 C         -55.365986     -151.493942      -51.684662
 C         -54.269966     -151.503174      -50.704319
 H         -54.906452     -154.552124      -49.765633
 H         -55.379471     -153.628860      -48.389805
 H         -57.452679     -151.921555      -51.684162
 H         -56.902599     -151.186249      -50.160793
 H         -53.633125     -153.587631      -50.752296
 H         -53.353535     -152.632065      -49.139153
 H         -55.330215     -150.489273      -52.067135
 H         -55.185040     -152.059280      -52.575348
 H         -53.235134     -151.198975      -51.173084
 H         -54.584644     -150.871674      -49.878330
