20
 generated by VMD
 C          -1.189030      -10.872992        0.847891
 N          -1.321375       -9.852556        1.258584
 H          -3.728720      -12.414544        0.619550
 H          -4.698332      -12.392407        2.115408
 C          -4.228173      -13.039974        1.386810
 C          -3.314403      -13.980350        2.173478
 C          -5.385509      -13.792969        0.725180
 C          -4.234932      -14.634486        3.305538
 C          -6.218321      -14.570189        1.753441
 C          -5.376794      -15.452916        2.669559
 H          -2.478257      -13.400963        2.641170
 H          -2.806554      -14.747792        1.570666
 H          -6.168360      -13.138182        0.229161
 H          -5.080860      -14.571571       -0.013642
 H          -4.633257      -13.828702        3.958337
 H          -3.526516      -15.243229        3.941680
 H          -6.855063      -15.248025        1.215171
 H          -6.852710      -13.918799        2.347046
 H          -6.036740      -15.730107        3.503072
 H          -5.027939      -16.376654        2.146009
