20
 generated by VMD
 C         -79.541588     -206.904846      -74.576660
 N         -80.303345     -206.024979      -74.348625
 H         -77.891212     -206.977432      -72.214455
 H         -78.902809     -207.722778      -74.630791
 C         -77.295883     -207.059235      -71.374107
 C         -76.096901     -206.268906      -71.549728
 C         -77.364296     -208.268539      -70.492134
 C         -75.434555     -206.049896      -70.186455
 C         -76.564438     -208.140854      -69.193459
 C         -75.190338     -207.357010      -69.430153
 H         -76.494789     -205.359802      -72.121017
 H         -75.231850     -206.706818      -72.080383
 H         -78.413803     -208.502121      -70.381927
 H         -76.898148     -208.982269      -71.128754
 H         -75.848282     -205.247925      -69.559830
 H         -74.462608     -205.553925      -70.505661
 H         -76.195999     -209.189804      -68.988937
 H         -77.138908     -207.829910      -68.367531
 H         -74.551765     -207.304138      -68.571404
 H         -74.464249     -207.885452      -70.164436
