20
 generated by VMD
 C         -69.832214     -196.769485      -65.502922
 N         -68.716240     -196.546432      -65.465057
 H         -71.803246     -194.117767      -64.963486
 H         -70.860046     -196.745331      -65.501953
 C         -72.352341     -193.825912      -65.882355
 C         -72.337120     -192.438492      -66.415993
 C         -72.884811     -194.863052      -66.807098
 C         -73.791634     -192.073090      -66.843178
 C         -74.335587     -194.481750      -67.358597
 C         -74.326683     -193.003952      -67.938034
 H         -71.648552     -192.436295      -67.204033
 H         -72.047455     -191.683548      -65.639336
 H         -72.173729     -194.973145      -67.730736
 H         -72.957367     -195.974136      -66.411293
 H         -73.724854     -191.033005      -67.086647
 H         -74.473305     -192.156693      -66.025940
 H         -75.090767     -194.545288      -66.570015
 H         -74.688721     -195.115692      -68.181450
 H         -73.609169     -193.020401      -68.736633
 H         -75.262924     -192.792587      -68.335136
