20
 generated by VMD
 C         -44.475082     -122.194801      -36.036800
 N         -43.965721     -121.204720      -35.849277
 H         -45.084591     -122.748642      -39.371971
 H         -45.073063     -123.104851      -36.070282
 C         -44.905540     -121.673698      -39.643429
 C         -43.457191     -121.237427      -39.406471
 C         -45.923122     -120.684242      -39.163280
 C         -43.302338     -119.775391      -40.081520
 C         -45.737556     -119.313438      -39.925255
 C         -44.328434     -118.788795      -39.678432
 H         -42.791466     -121.915298      -39.772961
 H         -43.263870     -121.060768      -38.349815
 H         -46.912613     -121.181679      -39.463627
 H         -45.956253     -120.538383      -38.033520
 H         -43.258400     -120.011909      -41.138550
 H         -42.318310     -119.434654      -39.779079
 H         -46.419151     -118.489632      -39.413006
 H         -46.071545     -119.528580      -40.953114
 H         -44.228653     -117.860023      -40.304413
 H         -44.115608     -118.443817      -38.630978
