20
 generated by VMD
 C         -79.406853     -209.145508      -76.167709
 N         -79.207489     -209.664871      -77.220024
 H         -77.649086     -209.129883      -72.930145
 H         -79.597008     -208.619675      -75.300385
 C         -77.943291     -210.008667      -72.360489
 C         -76.951759     -210.601028      -71.383171
 C         -79.044563     -210.913849      -72.784920
 C         -77.683830     -211.167206      -70.218567
 C         -79.675896     -211.771469      -71.645660
 C         -78.719315     -212.186203      -70.597916
 H         -76.452873     -209.699890      -71.026299
 H         -76.270012     -211.320435      -71.817329
 H         -79.713303     -210.299530      -73.316498
 H         -78.628601     -211.589661      -73.529053
 H         -78.062958     -210.380264      -69.551270
 H         -77.048889     -211.748886      -69.530785
 H         -80.338005     -212.586380      -72.009743
 H         -80.373848     -211.086517      -71.195419
 H         -79.214691     -212.644272      -69.712463
 H         -78.133842     -212.910645      -71.198586
