20
 generated by VMD
 C         -14.927988      -45.555222       -6.835635
 N         -14.548580      -46.589077       -6.991787
 H         -15.420154      -43.977600       -9.015837
 H         -14.468983      -44.222816      -10.439174
 C         -15.514046      -44.364479      -10.063864
 C         -16.479973      -43.452820      -10.823846
 C         -15.943759      -45.836082      -10.173131
 C         -16.693691      -43.703217      -12.312135
 C         -16.277092      -46.114288      -11.670927
 C         -17.238045      -45.141441      -12.359878
 H         -16.050508      -42.452579      -10.805589
 H         -17.405279      -43.377853      -10.229902
 H         -15.186681      -46.542095       -9.705960
 H         -16.860310      -46.037701       -9.567074
 H         -15.754144      -43.708660      -12.868051
 H         -17.392838      -42.986977      -12.762388
 H         -16.699995      -47.157375      -11.747453
 H         -15.281628      -46.090336      -12.192466
 H         -17.378960      -45.487831      -13.421260
 H         -18.226358      -45.080135      -11.828452
