20
 generated by VMD
 C         -50.524883     -145.050751      -45.105366
 N         -50.574554     -145.649979      -44.116524
 H         -53.349941     -143.818069      -46.007294
 H         -50.534504     -144.576355      -46.040253
 C         -53.533333     -143.361313      -47.004742
 C         -52.562901     -143.299881      -48.184128
 C         -54.710884     -142.491486      -47.027126
 C         -53.321789     -143.433273      -49.463543
 C         -55.529839     -142.489761      -48.349438
 C         -54.464378     -142.373367      -49.576214
 H         -51.652691     -143.927185      -48.030266
 H         -52.075279     -142.372513      -48.232742
 H         -55.340775     -142.840790      -46.268902
 H         -54.324272     -141.521225      -46.890991
 H         -53.830177     -144.381027      -49.398994
 H         -52.517380     -143.411148      -50.186886
 H         -56.364677     -141.717255      -48.393337
 H         -56.094803     -143.431854      -48.325050
 H         -54.933533     -142.423874      -50.485069
 H         -54.168152     -141.352448      -49.591282
