20
 generated by VMD
 C         -60.413101     -169.643982      -55.221539
 N         -59.401882     -169.168747      -55.302032
 H         -63.585548     -170.645905      -56.822353
 H         -61.399803     -170.039322      -55.187923
 C         -63.382511     -169.609772      -56.978943
 C         -62.633530     -169.090744      -58.170765
 C         -63.808449     -168.637939      -55.961136
 C         -63.218555     -167.755173      -58.688511
 C         -64.339149     -167.338806      -56.470757
 C         -63.572357     -166.714417      -57.626091
 H         -62.560760     -169.893478      -59.013184
 H         -61.611549     -168.792862      -58.079189
 H         -64.567955     -169.258270      -55.314465
 H         -62.872684     -168.553802      -55.325382
 H         -64.100510     -168.064178      -59.199310
 H         -62.460388     -167.261475      -59.374729
 H         -64.414688     -166.554443      -55.715324
 H         -65.445145     -167.445923      -56.902618
 H         -64.146637     -165.883484      -58.081928
 H         -62.541199     -166.410065      -57.212509
