20
 generated by VMD
 C          -5.745479      -21.454739        1.720854
 N          -6.476484      -22.278543        1.578722
 H          -5.231556      -19.040426       -0.588494
 H          -6.315019      -20.147501        0.058369
 C          -6.045540      -19.750486       -0.934008
 C          -5.621673      -20.945557       -1.778893
 C          -7.152956      -18.990583       -1.545538
 C          -6.806800      -21.850140       -2.162734
 C          -8.322165      -19.904654       -1.873039
 C          -7.868552      -20.987141       -2.808143
 H          -4.802929      -21.506027       -1.268479
 H          -5.268859      -20.600649       -2.782013
 H          -7.537823      -18.269974       -0.737467
 H          -6.759639      -18.548464       -2.489291
 H          -7.278212      -22.395828       -1.324283
 H          -6.472317      -22.586878       -2.909556
 H          -9.046118      -19.288214       -2.385100
 H          -8.796908      -20.305315       -0.974413
 H          -8.729300      -21.637653       -3.060695
 H          -7.444692      -20.535641       -3.722850
