20
 generated by VMD
 C         -69.030792     -194.127686      -64.534561
 N         -68.429199     -193.995605      -65.485939
 H         -71.082207     -193.960342      -67.574203
 H         -69.790619     -194.176010      -63.704449
 C         -71.940079     -193.432083      -67.229630
 C         -71.523468     -192.184036      -66.542816
 C         -73.318649     -193.925720      -67.303665
 C         -72.589806     -191.529251      -65.667976
 C         -74.367973     -192.987167      -66.688400
 C         -73.826149     -192.437836      -65.434647
 H         -71.244118     -191.324524      -67.351387
 H         -70.632065     -192.275848      -66.002357
 H         -73.660751     -194.465775      -68.283043
 H         -73.175125     -194.856079      -66.642952
 H         -72.907166     -190.565216      -65.950966
 H         -72.184166     -191.378662      -64.656395
 H         -75.360992     -193.458115      -66.419693
 H         -74.549667     -192.207489      -67.434753
 H         -74.703194     -191.800858      -64.961533
 H         -73.614380     -193.180984      -64.722969
