20
 generated by VMD
 C         -38.897717      -98.795197      -27.766216
 N         -38.492401      -99.868256      -27.540863
 H         -37.518391      -98.129486      -30.960356
 H         -39.189514      -97.875198      -28.173870
 C         -36.412868      -97.803383      -30.871033
 C         -35.562340      -98.275703      -31.954197
 C         -35.677509      -97.274124      -29.606323
 C         -34.456280      -97.260994      -32.284100
 C         -34.436985      -96.380165      -29.900589
 C         -33.625420      -97.208656      -31.054888
 H         -35.976913      -98.337914      -32.898521
 H         -35.206367      -99.285027      -31.690226
 H         -36.350883      -96.794441      -28.926298
 H         -35.277409      -98.208260      -29.120966
 H         -34.909634      -96.273743      -32.520538
 H         -33.936558      -97.480751      -33.138153
 H         -33.810047      -96.175697      -28.988649
 H         -34.836433      -95.412674      -30.318256
 H         -32.578278      -96.723557      -30.981361
 H         -33.452564      -98.241623      -30.823519
