20
 generated by VMD
 C         -50.654102     -128.807526      -42.320854
 N         -51.556225     -128.220978      -41.818771
 H         -48.024029     -128.026550      -40.706596
 H         -49.694138     -129.207916      -42.590939
 C         -47.123508     -127.474335      -40.736145
 C         -45.857506     -128.196609      -40.130787
 C         -46.956966     -126.159248      -41.248432
 C         -44.589500     -127.785286      -40.902809
 C         -45.659386     -125.855614      -41.948456
 C         -44.384895     -126.223030      -41.122604
 H         -46.108093     -129.284775      -40.305759
 H         -45.841957     -128.013611      -39.093082
 H         -47.964550     -125.882492      -41.716419
 H         -47.056149     -125.414352      -40.367279
 H         -44.563908     -128.433548      -41.816372
 H         -43.663174     -128.276337      -40.440826
 H         -45.718464     -124.813927      -42.082970
 H         -45.690891     -126.300468      -42.905781
 H         -43.516319     -125.921867      -41.725536
 H         -44.503315     -125.595306      -40.232635
