20
 generated by VMD
 C         -17.084911      -47.960636       -7.097823
 N         -16.612690      -46.950962       -6.980966
 H         -16.608124      -48.581356      -10.415682
 H         -15.509752      -48.434917      -11.727399
 C         -16.379141      -47.972157      -11.261175
 C         -16.024275      -46.556332      -10.771207
 C         -17.541145      -47.877586      -12.237679
 C         -15.674108      -45.553959      -11.919527
 C         -17.222797      -46.958302      -13.451763
 C         -16.788437      -45.596905      -12.954162
 H         -15.127002      -46.621876      -10.136740
 H         -16.795074      -46.107262      -10.128793
 H         -17.794964      -48.848061      -12.566580
 H         -18.387739      -47.392838      -11.763698
 H         -14.710588      -45.831764      -12.396546
 H         -15.611037      -44.532753      -11.510060
 H         -18.213533      -46.940624      -14.021329
 H         -16.441805      -47.379429      -14.153813
 H         -16.491356      -44.929539      -13.784720
 H         -17.665321      -45.160805      -12.362301
