20
 generated by VMD
 C         -38.295238     -109.676529      -36.480156
 N         -37.646362     -108.999748      -35.798119
 H         -41.794388     -110.967506      -37.213058
 H         -38.945656     -110.272079      -37.087906
 C         -41.825581     -111.524002      -36.273602
 C         -42.032425     -112.998260      -36.254723
 C         -41.920315     -110.602333      -35.085773
 C         -41.858067     -113.566437      -34.872963
 C         -41.968468     -111.409790      -33.785156
 C         -42.753567     -112.784500      -33.834721
 H         -41.505295     -113.497261      -37.044449
 H         -43.088875     -113.250908      -36.555153
 H         -41.030926     -109.981819      -34.837315
 H         -42.861691     -110.028542      -35.104546
 H         -40.831959     -113.490997      -34.603107
 H         -42.172150     -114.646896      -34.929966
 H         -42.335766     -110.724861      -33.079624
 H         -40.983196     -111.624161      -33.517277
 H         -42.736214     -113.212692      -32.895206
 H         -43.824379     -112.813210      -34.243458
