20
 generated by VMD
 C         -12.318585      -30.768747       -8.455649
 N         -11.960473      -30.597761       -7.430429
 H         -11.676991      -34.636570       -7.839485
 H         -12.717533      -33.909203       -6.611640
 C         -11.870756      -34.543697       -6.802895
 C         -10.718855      -33.793522       -6.145361
 C         -12.123108      -35.925694       -6.043255
 C         -11.066888      -33.598846       -4.639524
 C         -12.392775      -35.760994       -4.534144
 C         -11.281744      -34.925186       -3.918078
 H         -10.598160      -32.800583       -6.613078
 H          -9.790309      -34.371616       -6.119803
 H         -12.920149      -36.502636       -6.555236
 H         -11.177636      -36.446819       -6.167428
 H         -11.990135      -33.000000       -4.682268
 H         -10.227015      -33.046513       -4.140516
 H         -12.363621      -36.793541       -4.004091
 H         -13.354257      -35.335110       -4.380895
 H         -11.377740      -34.814121       -2.786150
 H         -10.371679      -35.520180       -4.064209
