20
 generated by VMD
 C         -38.496307     -112.641602      -35.809708
 N         -38.049583     -112.013420      -36.706486
 H         -40.854668     -114.473915      -34.988483
 H         -38.903278     -113.122612      -34.904728
 C         -41.836819     -114.279770      -35.496571
 C         -41.925690     -114.519547      -36.950577
 C         -42.789299     -113.475792      -34.711121
 C         -43.340942     -114.695442      -37.370384
 C         -44.133663     -113.887009      -35.189465
 C         -44.301914     -113.717499      -36.630135
 H         -41.200264     -115.237892      -37.359009
 H         -41.567135     -113.625244      -37.487747
 H         -42.476315     -113.551208      -33.656147
 H         -42.625080     -112.387978      -35.004665
 H         -43.756931     -115.699905      -37.051178
 H         -43.535923     -114.728683      -38.422329
 H         -44.816494     -113.238510      -34.711212
 H         -44.370998     -114.908440      -35.001968
 H         -45.290436     -113.852043      -37.045868
 H         -44.128181     -112.716942      -36.942890
