20
 generated by VMD
 C          -1.483429       -8.993094        0.103913
 N          -2.585323       -9.156278        0.032986
 H          -2.500248      -10.367259        2.607713
 H          -2.066109      -11.528986        3.775381
 C          -2.801221      -11.368282        2.998842
 C          -2.785707      -12.563869        2.012181
 C          -4.245382      -11.195412        3.613168
 C          -3.289266      -13.902108        2.594136
 C          -4.707897      -12.521745        4.219079
 C          -4.702761      -13.670251        3.223589
 H          -1.778984      -12.610991        1.615585
 H          -3.438669      -12.289468        1.154827
 H          -4.285649      -10.265905        4.262407
 H          -4.840560      -11.049899        2.629026
 H          -2.556828      -14.252537        3.371158
 H          -3.260061      -14.634105        1.789317
 H          -5.723039      -12.451338        4.532199
 H          -4.104526      -12.758530        5.073594
 H          -4.899471      -14.593438        3.759765
 H          -5.445779      -13.535386        2.443109
