20
 generated by VMD
 C         -70.772743     -181.710068      -64.126877
 N         -70.002647     -182.421570      -63.697105
 H         -68.521790     -180.944031      -61.491386
 H         -71.530899     -180.990097      -64.464523
 C         -67.614838     -180.726501      -61.041481
 C         -66.675362     -181.801559      -60.580399
 C         -67.364922     -179.383133      -60.468800
 C         -65.261292     -181.421677      -60.861824
 C         -65.870117     -178.989594      -60.802681
 C         -64.856255     -180.018906      -60.335342
 H         -66.952759     -182.669357      -61.177593
 H         -66.830818     -182.070282      -59.610794
 H         -68.003906     -178.624741      -61.071945
 H         -67.544258     -179.316483      -59.373886
 H         -64.923660     -181.658524      -61.919735
 H         -64.824074     -182.212585      -60.213158
 H         -65.668953     -178.037216      -60.286407
 H         -65.755783     -178.883636      -61.890568
 H         -63.772484     -179.831390      -60.634266
 H         -64.817390     -180.033951      -59.277771
