20
 generated by VMD
 C         -41.110500     -102.475510      -35.059109
 N         -41.531193     -103.058243      -35.967262
 H         -39.666916     -104.345428      -32.551151
 H         -40.533791     -101.990135      -34.231804
 C         -38.730686     -104.801704      -32.431664
 C         -37.466995     -104.367653      -32.910629
 C         -38.755131     -106.205460      -31.914536
 C         -36.405216     -104.341591      -31.833246
 C         -37.803631     -106.130569      -30.681511
 C         -36.339489     -105.659653      -31.069700
 H         -37.503510     -103.382210      -33.493279
 H         -37.112434     -105.086037      -33.696095
 H         -39.882679     -106.423706      -31.582872
 H         -38.487453     -106.979179      -32.599663
 H         -36.619946     -103.519432      -31.108122
 H         -35.385574     -104.184517      -32.270493
 H         -37.692036     -107.202728      -30.245808
 H         -38.380451     -105.556877      -29.947861
 H         -35.605118     -105.710403      -30.291998
 H         -36.067852     -106.456734      -31.824102
