20
 generated by VMD
 C          -1.339630      -13.333630        0.774147
 N          -0.421933      -13.565071        0.184090
 H          -4.382979      -13.662262        1.970871
 H          -5.262868      -13.933493        0.522141
 C          -5.031057      -14.370879        1.474460
 C          -6.293370      -14.571984        2.310592
 C          -4.344440      -15.699293        1.064690
 C          -7.258392      -15.525636        1.568702
 C          -5.312564      -16.537722        0.365304
 C          -6.572148      -16.863457        1.148240
 H          -6.709538      -13.574491        2.589626
 H          -6.065307      -15.005703        3.324812
 H          -3.502224      -15.477963        0.349239
 H          -3.890016      -16.314741        1.972368
 H          -7.719207      -15.028486        0.732784
 H          -8.065446      -15.782997        2.222890
 H          -4.875806      -17.453447        0.022925
 H          -5.639852      -16.021185       -0.537353
 H          -7.201791      -17.446333        0.466418
 H          -6.347072      -17.545202        1.951785
