20
 generated by VMD
 C         -79.522484     -205.360107      -70.937225
 N         -80.655006     -205.561813      -71.051056
 H         -77.080597     -202.749863      -69.442970
 H         -78.432510     -205.085815      -71.110283
 C         -76.035110     -202.975266      -69.529617
 C         -75.367699     -202.102371      -70.555107
 C         -75.313049     -204.223190      -69.168472
 C         -73.940224     -201.892929      -70.158203
 C         -73.782417     -204.083405      -69.189819
 C         -73.075645     -203.194717      -70.256630
 H         -75.898201     -201.170380      -70.434731
 H         -75.592773     -202.510406      -71.597282
 H         -75.743935     -204.713104      -68.294388
 H         -75.549141     -204.989059      -69.848091
 H         -73.796844     -201.407990      -69.164391
 H         -73.455322     -201.147476      -70.857300
 H         -73.282417     -205.103729      -69.383255
 H         -73.502899     -203.834549      -68.197731
 H         -72.093620     -202.948349      -69.993294
 H         -73.076294     -203.692581      -71.200111
