20
 generated by VMD
 C         -74.864586     -201.841080      -66.364990
 N         -74.272232     -201.150284      -65.683006
 H         -76.287117     -199.123795      -68.824059
 H         -75.591942     -202.481903      -66.928528
 C         -75.251808     -198.680801      -68.891998
 C         -75.004066     -197.390320      -68.197189
 C         -74.403015     -199.210556      -69.968857
 C         -73.548241     -197.077072      -68.072006
 C         -73.201263     -198.443787      -70.275475
 C         -72.590446     -197.836761      -68.983490
 H         -75.489998     -197.345337      -67.202011
 H         -75.426079     -196.489670      -68.813423
 H         -74.041206     -200.171997      -69.531509
 H         -75.051857     -199.290405      -70.900124
 H         -73.176041     -197.448151      -67.065506
 H         -73.308052     -196.029312      -68.112083
 H         -73.469978     -197.622070      -71.026787
 H         -72.420448     -199.101639      -70.700462
 H         -72.280121     -198.760040      -68.260185
 H         -71.700821     -197.453476      -69.314789
