20
 generated by VMD
 C          -1.248356      -12.328129        1.401300
 N          -0.825009      -12.640176        0.382831
 H          -4.066472      -12.894232        0.985651
 H          -5.714910      -13.142319        0.682085
 C          -4.871587      -13.659717        1.131307
 C          -5.121107      -14.013643        2.603977
 C          -4.567319      -14.945913        0.267786
 C          -6.265047      -15.003216        2.764959
 C          -5.631496      -16.046280        0.490777
 C          -5.982513      -16.266796        1.989868
 H          -5.473364      -13.053300        2.999185
 H          -4.188913      -14.338427        3.016947
 H          -4.476752      -14.651845       -0.743252
 H          -3.620493      -15.290895        0.552110
 H          -7.196485      -14.498744        2.457034
 H          -6.384830      -15.174890        3.863735
 H          -5.253167      -17.005030        0.088624
 H          -6.573820      -15.780441       -0.064175
 H          -6.758977      -17.020071        2.059757
 H          -5.067717      -16.742521        2.388679
