20
 generated by VMD
 C         -11.177111      -32.678726       -8.786770
 N         -11.955404      -32.976788       -9.549824
 H         -11.970428      -33.731995       -6.416482
 H         -12.646976      -34.227512       -4.852829
 C         -12.308932      -34.571167       -5.852256
 C         -11.138463      -35.554832       -5.613866
 C         -13.548210      -35.321995       -6.464713
 C         -11.406282      -36.897816       -4.956152
 C         -13.883202      -36.569561       -5.625263
 C         -12.626170      -37.492264       -5.651526
 H         -10.475677      -34.991791       -4.948984
 H         -10.691767      -35.817116       -6.555954
 H         -14.371638      -34.588120       -6.491925
 H         -13.294957      -35.603115       -7.519542
 H         -11.639112      -36.796356       -3.887320
 H         -10.569783      -37.577988       -5.178307
 H         -14.646201      -37.056438       -6.134367
 H         -14.188378      -36.369404       -4.552086
 H         -12.851295      -38.426048       -5.046275
 H         -12.366176      -37.853756       -6.638290
