20
 generated by VMD
 C         -31.475121      -77.860046      -26.416834
 N         -31.696650      -77.994247      -27.529322
 H         -29.309111      -79.042946      -23.738138
 H         -31.044302      -77.973915      -25.489086
 C         -29.029049      -79.928329      -23.096212
 C         -27.535398      -80.116348      -23.011501
 C         -29.935312      -81.054108      -22.879091
 C         -27.122454      -80.853355      -21.840637
 C         -29.495214      -81.792992      -21.639307
 C         -28.001181      -82.170982      -21.733995
 H         -26.796797      -79.225357      -23.128838
 H         -27.317308      -80.706871      -23.987627
 H         -30.966715      -80.781380      -22.794846
 H         -29.924145      -81.523476      -23.853596
 H         -27.291378      -80.142715      -21.042780
 H         -25.997402      -81.061035      -21.863956
 H         -30.076481      -82.764313      -21.480726
 H         -29.679462      -81.177834      -20.834930
 H         -27.905188      -82.669838      -20.772598
 H         -27.797304      -82.887321      -22.596525
