20
 generated by VMD
 C         -45.634422     -123.559792      -35.507423
 N         -46.193840     -124.605522      -35.382980
 H         -45.024097     -122.370995      -38.282303
 H         -44.994568     -122.708221      -35.402782
 C         -44.685326     -121.632401      -39.061062
 C         -43.397785     -121.391342      -39.637920
 C         -45.792179     -120.655846      -39.484417
 C         -43.424370     -121.138771      -41.173176
 C         -45.834694     -120.491020      -41.026844
 C         -44.461014     -120.169487      -41.608410
 H         -42.752247     -122.226364      -39.349808
 H         -43.197979     -120.413506      -39.095341
 H         -46.819828     -120.978279      -39.282448
 H         -45.706024     -119.658463      -38.854450
 H         -43.797581     -122.048424      -41.642086
 H         -42.388096     -120.759018      -41.469093
 H         -46.590935     -119.746643      -41.202091
 H         -46.259983     -121.372856      -41.527782
 H         -44.493927     -119.999847      -42.744770
 H         -44.159794     -119.202301      -41.165810
