20
 generated by VMD
 C         -68.319946     -188.525101      -66.956436
 N         -68.576065     -187.757446      -67.810440
 H         -68.339859     -186.992432      -63.798717
 H         -68.083839     -189.165512      -66.068024
 C         -69.280991     -187.457596      -63.465515
 C         -69.270111     -188.687653      -62.608040
 C         -70.466110     -186.589478      -63.619888
 C         -70.571968     -189.541687      -62.846626
 C         -71.715019     -187.370911      -63.814240
 C         -71.810272     -188.575607      -62.814983
 H         -69.252090     -188.610504      -61.578064
 H         -68.416718     -189.169510      -62.955242
 H         -70.528809     -185.748245      -62.898430
 H         -70.249527     -185.932419      -64.576797
 H         -70.628929     -190.331543      -62.041573
 H         -70.516022     -189.966095      -63.810661
 H         -71.932457     -187.730713      -64.787315
 H         -72.524048     -186.643463      -63.685177
 H         -71.672760     -188.160843      -61.732513
 H         -72.798538     -189.036560      -62.920647
