20
 generated by VMD
 C         -62.370136     -172.313629      -54.964870
 N         -61.420750     -172.951706      -55.270298
 H         -61.692516     -171.027145      -58.392368
 H         -63.254982     -171.911484      -54.519623
 C         -62.497471     -170.342606      -58.532887
 C         -62.427399     -168.910660      -57.918533
 C         -63.801517     -170.905197      -58.133888
 C         -63.644627     -168.031967      -58.424557
 C         -64.978592     -170.054749      -58.635448
 C         -64.930725     -168.667023      -57.992821
 H         -61.492172     -168.437378      -58.219154
 H         -62.417458     -168.928635      -56.763988
 H         -64.034439     -171.851120      -58.545628
 H         -63.877014     -171.041870      -57.017399
 H         -63.518055     -167.938797      -59.497887
 H         -63.508232     -167.054413      -58.126396
 H         -65.962387     -170.501755      -58.346329
 H         -65.092995     -169.892822      -59.769512
 H         -65.755615     -168.078156      -58.349152
 H         -65.135223     -168.881485      -56.900536
