20
 generated by VMD
 C         -56.169777     -150.208344      -47.103714
 N         -57.107182     -150.285873      -46.413021
 H         -53.443253     -147.837387      -47.397972
 H         -55.295593     -150.008530      -47.664146
 C         -53.731888     -147.616760      -48.419647
 C         -53.063377     -148.157761      -49.702251
 C         -54.525623     -146.253845      -48.574738
 C         -53.995544     -147.963562      -50.970642
 C         -55.451664     -146.194382      -49.827484
 C         -54.729813     -146.642563      -51.077892
 H         -53.002182     -149.308044      -49.514790
 H         -52.104580     -147.694046      -49.779587
 H         -55.165379     -146.035217      -47.726032
 H         -53.747051     -145.524689      -48.694771
 H         -54.761673     -148.774277      -51.136814
 H         -53.289467     -147.957047      -51.830330
 H         -55.699928     -145.176315      -49.942566
 H         -56.424637     -146.846375      -49.820908
 H         -55.476322     -146.654587      -51.895004
 H         -53.920094     -145.956345      -51.271969
