20
 generated by VMD
 C         -22.668644      -52.462887      -11.950266
 N         -23.758816      -52.415569      -11.618181
 H         -20.034670      -53.680695      -14.150077
 H         -21.905964      -52.615097      -12.475729
 C         -18.979189      -53.580364      -14.158834
 C         -18.353559      -52.225613      -14.546216
 C         -18.083639      -54.516140      -13.373203
 C         -16.826000      -52.127678      -14.362307
 C         -17.103418      -53.746799      -12.423791
 C         -16.190699      -52.781357      -13.085717
 H         -18.813639      -51.417519      -13.993052
 H         -18.670742      -51.954578      -15.591541
 H         -18.753569      -55.113297      -12.725291
 H         -17.516878      -55.153889      -14.002953
 H         -16.519794      -51.090832      -14.241327
 H         -16.308113      -52.468025      -15.265314
 H         -16.522861      -54.457710      -11.761374
 H         -17.732561      -53.169262      -11.804425
 H         -15.918617      -51.926041      -12.424107
 H         -15.223742      -53.214931      -13.363676
