20
 generated by VMD
 C          -1.945259      -15.800854        1.854973
 N          -1.729134      -15.290767        2.829340
 H          -3.944207      -16.226070        0.080757
 H          -4.655850      -17.209518       -1.119813
 C          -4.894908      -16.699741       -0.212488
 C          -6.045019      -15.750901       -0.545543
 C          -5.356701      -17.806660        0.740053
 C          -7.373539      -16.475698       -0.918628
 C          -6.560388      -18.554401        0.272700
 C          -7.716124      -17.601000        0.038985
 H          -5.750110      -14.993839       -1.227925
 H          -6.306954      -15.288446        0.431784
 H          -4.548451      -18.482401        0.903035
 H          -5.515667      -17.342651        1.675051
 H          -7.292553      -16.811071       -1.976239
 H          -8.254024      -15.742768       -0.785307
 H          -6.915469      -19.297802        0.985434
 H          -6.341836      -19.093975       -0.706993
 H          -8.466938      -18.234493       -0.449892
 H          -8.157900      -17.208176        0.944805
