20
 generated by VMD
 C         -29.253548      -88.031960      -25.003799
 N         -28.842459      -87.965469      -26.065964
 H         -31.262003      -89.662933      -27.481936
 H         -29.678762      -87.914398      -24.007240
 C         -32.295273      -89.525566      -27.225658
 C         -32.815125      -89.406479      -25.794924
 C         -33.272247      -89.285591      -28.356682
 C         -33.520248      -88.036324      -25.647196
 C         -34.158978      -87.989273      -28.128157
 C         -34.680813      -87.949730      -26.696667
 H         -31.935926      -89.317299      -25.125736
 H         -33.502918      -90.159004      -25.618467
 H         -32.503143      -89.190643      -29.123825
 H         -33.821354      -90.233612      -28.443268
 H         -32.855236      -87.214737      -25.820856
 H         -34.032097      -87.748657      -24.677528
 H         -34.980282      -87.990227      -28.801931
 H         -33.586868      -87.038055      -28.255396
 H         -35.194408      -87.075592      -26.638271
 H         -35.421337      -88.672760      -26.529463
