20
 generated by VMD
 C         -10.529684      -37.652290       -7.558361
 N         -11.405033      -37.053795       -7.814085
 H         -12.565024      -39.917690       -8.266465
 H         -13.758726      -39.451321       -6.958904
 C         -13.647365      -39.987514       -7.972997
 C         -13.897916      -41.470387       -7.821137
 C         -14.470143      -39.374851       -9.116952
 C         -15.341849      -41.907967       -7.736366
 C         -15.934279      -39.697701       -8.863401
 C         -16.157549      -41.182133       -8.833902
 H         -13.373682      -41.798653       -6.902099
 H         -13.533153      -41.964012       -8.765079
 H         -14.396268      -38.290649       -9.117248
 H         -14.139750      -39.835472      -10.041020
 H         -15.651846      -41.630135       -6.706239
 H         -15.442001      -42.960289       -7.955223
 H         -16.566383      -39.274261       -9.734583
 H         -16.260916      -39.207958       -7.973430
 H         -17.227118      -41.390194       -8.708501
 H         -15.864419      -41.636383       -9.807586
