20
 generated by VMD
 C         -50.608326     -130.896133      -45.779667
 N         -50.566631     -129.911438      -46.288795
 H         -47.586899     -132.298584      -44.436771
 H         -50.328049     -131.667084      -45.068504
 C         -48.036812     -132.325607      -43.490677
 C         -48.522045     -133.583527      -42.931454
 C         -48.322506     -131.079041      -42.673317
 C         -48.168194     -133.764862      -41.437660
 C         -47.890152     -131.250412      -41.283134
 C         -48.421101     -132.548721      -40.511909
 H         -48.069141     -134.384583      -43.381001
 H         -49.648239     -133.697083      -43.121662
 H         -47.843853     -130.175308      -43.233479
 H         -49.367668     -130.823212      -42.728462
 H         -47.058632     -133.775620      -41.430504
 H         -48.428638     -134.756088      -41.039513
 H         -48.104652     -130.478607      -40.652298
 H         -46.786785     -131.269882      -41.230141
 H         -47.851627     -132.431732      -39.508198
 H         -49.471275     -132.450165      -40.438602
