20
 generated by VMD
 C         -32.615059      -93.017204      -25.705877
 N         -32.783405      -94.137207      -25.642239
 H         -33.576065      -94.865417      -28.624680
 H         -32.629757      -91.912666      -25.817642
 C         -34.121868      -94.079872      -29.071636
 C         -35.373470      -93.517250      -28.372837
 C         -33.818638      -93.279099      -30.298136
 C         -35.256695      -92.119904      -27.975578
 C         -33.577236      -91.838783      -29.886393
 C         -34.656418      -91.175941      -28.996750
 H         -35.624657      -94.118118      -27.396582
 H         -36.181324      -93.649025      -29.159563
 H         -32.953934      -93.723038      -30.838835
 H         -34.641895      -93.413452      -31.006575
 H         -34.495537      -92.126991      -27.250294
 H         -36.043007      -91.522102      -27.462902
 H         -33.362854      -91.354103      -30.855345
 H         -32.644108      -91.802048      -29.305443
 H         -34.159142      -90.212051      -28.636723
 H         -35.452888      -90.801140      -29.616804
