20
 generated by VMD
 C         -31.262102      -93.466064      -26.155239
 N         -31.754053      -93.852493      -25.167469
 H         -33.533115      -93.991692      -27.655191
 H         -30.595163      -93.150276      -27.054293
 C         -34.158310      -93.395706      -28.381500
 C         -35.531559      -92.947197      -27.959541
 C         -33.342258      -92.549080      -29.420614
 C         -35.896591      -91.556656      -28.312689
 C         -33.760067      -91.146370      -29.716921
 C         -35.273762      -91.087456      -29.609190
 H         -35.796364      -93.279373      -26.952463
 H         -36.120487      -93.714645      -28.482073
 H         -32.279560      -92.650864      -29.061508
 H         -33.499966      -93.068115      -30.393665
 H         -35.654266      -90.817986      -27.585087
 H         -37.011921      -91.507317      -28.544163
 H         -33.205780      -90.838120      -30.584469
 H         -33.467609      -90.477264      -28.894426
 H         -35.521275      -90.040665      -29.789440
 H         -35.605701      -91.647507      -30.443171
