20
 generated by VMD
 C         -69.820900     -184.813614      -66.546509
 N         -68.997925     -184.508179      -67.316605
 H         -69.818703     -183.353928      -63.067966
 H         -70.520409     -185.120392      -65.794792
 C         -69.068695     -183.485153      -62.276287
 C         -69.509048     -184.494110      -61.279545
 C         -68.128304     -182.415085      -61.948914
 C         -68.252243     -185.169617      -60.805447
 C         -66.902397     -182.995636      -61.284641
 C         -67.269318     -184.063110      -60.273071
 H         -70.153938     -185.271118      -61.654373
 H         -69.929665     -183.914734      -60.466377
 H         -67.681374     -181.962357      -62.922050
 H         -68.721405     -181.647018      -61.404949
 H         -67.777954     -185.708572      -61.565639
 H         -68.370895     -185.793823      -59.951996
 H         -66.303673     -182.189392      -60.866898
 H         -66.347321     -183.437744      -62.178005
 H         -66.254890     -184.641846      -59.943222
 H         -67.668678     -183.708618      -59.316608
