20
 generated by VMD
 C         -38.551678     -113.292770      -36.344479
 N         -37.413982     -113.270142      -36.141613
 H         -41.404865     -114.615227      -34.814690
 H         -39.560177     -113.132034      -36.531658
 C         -42.238014     -114.585526      -35.546730
 C         -42.119110     -114.681908      -37.123707
 C         -43.480701     -114.202614      -34.968029
 C         -43.413864     -115.025894      -37.769390
 C         -44.744732     -114.757393      -35.713596
 C         -44.721146     -114.393921      -37.154606
 H         -41.308487     -115.368446      -37.228920
 H         -41.609661     -113.771660      -37.345688
 H         -43.588043     -114.516563      -33.893635
 H         -43.638119     -113.114471      -34.792915
 H         -43.468349     -116.138084      -37.795704
 H         -43.329651     -114.664948      -38.752140
 H         -45.701202     -114.402832      -35.367638
 H         -44.908848     -115.761864      -35.396042
 H         -45.697033     -114.935188      -37.551651
 H         -44.728302     -113.314423      -37.302563
