20
 generated by VMD
 C          -1.973261      -13.682137        0.840856
 N          -1.715483      -12.942844        1.629706
 H          -3.554983      -17.125677        1.471480
 H          -3.984072      -16.799391       -0.140564
 C          -4.409134      -16.888397        0.852768
 C          -5.152115      -15.614768        1.325476
 C          -5.427925      -18.034901        0.965899
 C          -6.398733      -15.330843        0.447153
 C          -6.664663      -17.808619        0.134974
 C          -7.317170      -16.494160        0.308739
 H          -4.473028      -14.743553        1.129225
 H          -5.419107      -15.729352        2.401874
 H          -4.960732      -18.948545        0.754777
 H          -5.653328      -18.208792        1.996429
 H          -6.007846      -15.131277       -0.540314
 H          -6.882704      -14.406519        0.807436
 H          -7.385374      -18.604366        0.285770
 H          -6.345285      -17.928411       -0.941875
 H          -8.115994      -16.281610       -0.412913
 H          -7.758136      -16.583052        1.309695
