20
 generated by VMD
 C         -22.012243      -55.363239      -17.589136
 N         -21.348856      -55.818340      -18.388338
 H         -21.473652      -56.772804      -13.916701
 H         -22.388956      -55.175426      -16.626308
 C         -21.225096      -57.833069      -14.140141
 C         -21.375523      -58.766605      -13.002758
 C         -21.014549      -58.438778      -15.526915
 C         -20.882887      -60.190979      -13.299386
 C         -20.284052      -59.711010      -15.636826
 C         -19.727201      -60.333511      -14.345345
 H         -22.405346      -58.892296      -12.790370
 H         -20.866623      -58.382771      -12.138538
 H         -22.104033      -58.533649      -15.937629
 H         -20.554787      -57.733925      -16.226957
 H         -21.764769      -60.818958      -13.611124
 H         -20.495977      -60.589680      -12.307328
 H         -19.442944      -59.701210      -16.357645
 H         -21.022480      -60.448879      -15.961786
 H         -19.552078      -61.394669      -14.489789
 H         -18.783310      -59.941795      -13.987724
