20
 generated by VMD
 C         -40.088333     -104.800522      -36.056507
 N         -39.474171     -104.530106      -36.990379
 H         -40.226707     -108.061501      -35.366398
 H         -40.492050     -105.075371      -35.079330
 C         -39.861557     -108.190727      -34.331100
 C         -38.885464     -107.229576      -33.648735
 C         -40.213451     -109.432610      -33.453697
 C         -39.051277     -107.059746      -32.223801
 C         -39.966564     -109.353798      -32.006157
 C         -38.741768     -108.476357      -31.573841
 H         -38.843578     -106.209114      -34.034698
 H         -37.822220     -107.493408      -33.951824
 H         -41.257557     -109.570297      -33.669506
 H         -39.654209     -110.324158      -33.848770
 H         -40.059933     -106.732452      -31.964941
 H         -38.300152     -106.399246      -31.901819
 H         -39.769886     -110.248604      -31.454266
 H         -40.878922     -108.931221      -31.502739
 H         -38.765503     -108.332230      -30.544657
 H         -37.685860     -108.874031      -31.843334
