20
 generated by VMD
 C         -36.613804      -98.229042      -26.403654
 N         -37.636597      -98.355896      -26.932070
 H         -36.406956      -96.192574      -28.687346
 H         -35.699039      -98.144295      -25.732334
 C         -35.705528      -96.044121      -29.516891
 C         -35.419281      -96.924568      -30.620249
 C         -34.469482      -95.324501      -29.078800
 C         -35.108582      -96.012573      -31.805403
 C         -34.020805      -94.447990      -30.267347
 C         -33.854145      -95.136726      -31.649961
 H         -36.373398      -97.445793      -30.885475
 H         -34.740612      -97.695793      -30.365957
 H         -34.703369      -94.709770      -28.216272
 H         -33.580765      -95.889008      -28.874943
 H         -35.968452      -95.345619      -31.930300
 H         -34.962505      -96.578583      -32.698776
 H         -33.113995      -93.925179      -30.045420
 H         -34.742493      -93.585365      -30.408468
 H         -33.640003      -94.389450      -32.386829
 H         -32.994263      -95.818726      -31.409088
