20
 generated by VMD
 C         -48.559330     -126.269180      -38.700386
 N         -49.166641     -127.276367      -38.534306
 H         -46.157467     -123.584290      -38.413643
 H         -48.040310     -125.285568      -38.645164
 C         -45.586273     -123.414177      -39.301804
 C         -44.360683     -124.361099      -39.604473
 C         -45.634739     -122.148949      -40.033779
 C         -44.304939     -124.537224      -41.087742
 C         -45.501240     -122.422562      -41.517426
 C         -44.076595     -123.219612      -41.785484
 H         -44.612541     -125.375809      -39.188076
 H         -43.562084     -124.139381      -39.001240
 H         -46.632111     -121.768883      -39.892048
 H         -44.957172     -121.410622      -39.505482
 H         -45.204422     -124.999855      -41.544800
 H         -43.490086     -125.263802      -41.181862
 H         -45.372913     -121.364105      -41.998901
 H         -46.335072     -122.928612      -42.150146
 H         -43.908665     -123.462860      -42.844646
 H         -43.218437     -122.662308      -41.509026
