20
 generated by VMD
 C         -66.255936     -189.682144      -66.730942
 N         -66.300308     -189.186218      -67.795288
 H         -69.827614     -190.295425      -65.111626
 H         -66.040886     -189.934784      -65.654274
 C         -70.682098     -189.807465      -64.505951
 C         -71.893852     -190.668381      -64.088234
 C         -70.472633     -188.637115      -63.719521
 C         -73.205170     -189.911301      -63.755917
 C         -71.762497     -187.782883      -63.835773
 C         -72.987091     -188.478989      -63.112286
 H         -71.523636     -191.258072      -63.173939
 H         -72.071609     -191.378220      -65.009682
 H         -70.103264     -188.826126      -62.719685
 H         -69.523445     -188.055191      -64.205078
 H         -73.891998     -190.515320      -63.169262
 H         -73.665138     -189.740677      -64.724182
 H         -71.919334     -187.563354      -64.882843
 H         -71.560478     -186.774658      -63.525784
 H         -72.664749     -188.711548      -62.062279
 H         -73.929443     -187.737213      -63.173153
