20
 generated by VMD
 C         -58.671429     -161.292572      -56.502911
 N         -58.467411     -160.180756      -56.653549
 H         -59.518082     -164.726944      -55.020557
 H         -58.828270     -162.349396      -56.353935
 C         -60.060043     -163.996307      -54.497055
 C         -59.560528     -163.508270      -53.189098
 C         -61.486217     -163.947327      -55.016571
 C         -60.347225     -162.148117      -52.965122
 C         -62.192627     -162.663971      -54.590172
 C         -61.878288     -162.222549      -53.203487
 H         -58.576618     -163.208328      -53.433212
 H         -59.692116     -164.206696      -52.392239
 H         -61.517242     -163.999115      -56.090755
 H         -62.082825     -164.843491      -54.755836
 H         -60.091373     -161.249344      -53.586208
 H         -60.184330     -161.727066      -51.937183
 H         -63.318062     -162.808975      -54.773209
 H         -61.768459     -161.845291      -55.183079
 H         -62.415131     -161.218567      -52.905167
 H         -62.280159     -162.902985      -52.437172
