20
 generated by VMD
 C         -35.294285      -97.248932      -26.156744
 N         -34.364525      -97.815407      -25.738592
 H         -35.812366      -93.860260      -27.766674
 H         -36.192959      -96.852806      -26.746521
 C         -35.283993      -94.154755      -28.679459
 C         -35.995468      -95.070786      -29.640150
 C         -33.939400      -93.649872      -28.958393
 C         -35.862259      -94.584747      -31.068474
 C         -33.638920      -93.289345      -30.501461
 C         -34.312782      -94.209976      -31.466803
 H         -36.993519      -95.049866      -29.254896
 H         -35.664494      -96.103302      -29.477682
 H         -33.483505      -92.910530      -28.315870
 H         -33.360218      -94.530632      -28.822014
 H         -36.549400      -93.769234      -31.316931
 H         -36.164421      -95.510262      -31.663137
 H         -32.567650      -93.303673      -30.820906
 H         -33.992512      -92.267059      -30.530214
 H         -34.398796      -93.859024      -32.632690
 H         -33.756256      -95.102524      -31.375158
