20
 generated by VMD
 C          -9.276496      -24.299604        1.525667
 N          -9.474229      -25.268904        2.024014
 H          -7.291109      -23.135963       -0.684203
 H          -8.696193      -22.650026       -1.854877
 C          -7.659364      -23.010992       -1.733372
 C          -7.528818      -24.293591       -2.576708
 C          -6.701054      -21.898159       -2.342108
 C          -7.746643      -24.011356       -4.071702
 C          -6.973924      -21.569218       -3.766739
 C          -6.982687      -22.804865       -4.644693
 H          -8.186261      -25.114681       -2.349174
 H          -6.580908      -24.771526       -2.400043
 H          -6.785761      -21.022999       -1.713442
 H          -5.663580      -22.253073       -2.231855
 H          -8.842552      -23.828260       -4.158281
 H          -7.684877      -24.915089       -4.786314
 H          -6.200508      -20.876242       -4.117195
 H          -7.934102      -21.045574       -3.957500
 H          -7.312678      -22.488792       -5.622612
 H          -5.943661      -23.204002       -4.672323
