20
 generated by VMD
 C         -40.967873     -100.939201      -32.886059
 N         -41.933323     -101.428154      -32.443851
 H         -38.429100     -103.198906      -32.460838
 H         -39.957386     -100.696228      -33.261490
 C         -37.577805     -102.740807      -31.998386
 C         -36.239971     -102.777985      -32.890545
 C         -37.315216     -102.837921      -30.549250
 C         -35.248085     -101.870277      -32.320827
 C         -36.212749     -101.936646      -29.989145
 C         -34.992943     -102.003143      -30.894625
 H         -36.513817     -102.380722      -33.928844
 H         -35.990070     -103.840340      -32.912952
 H         -38.229301     -102.630089      -30.103634
 H         -37.095238     -103.925705      -30.366072
 H         -35.489841     -100.796066      -32.484589
 H         -34.326115     -102.011574      -32.996204
 H         -35.767071     -102.476280      -28.999332
 H         -36.608009     -100.964195      -29.753698
 H         -34.145920     -101.393539      -30.559961
 H         -34.535748     -102.988609      -30.894775
