20
 generated by VMD
 C         -12.632987      -27.570269       -4.567687
 N         -13.681851      -27.951462       -4.560792
 H         -10.653923      -29.836464       -2.645937
 H         -10.649814      -28.195755       -3.355597
 C          -9.991819      -29.120106       -3.158067
 C          -9.504852      -29.901972       -4.385716
 C          -8.797620      -28.600838       -2.303534
 C          -8.467179      -29.119101       -5.242415
 C          -7.844717      -27.683044       -3.214987
 C          -7.320690      -28.475628       -4.454475
 H         -10.400013      -30.086180       -4.965272
 H          -8.971121      -30.865238       -4.054696
 H          -9.142536      -28.104513       -1.398109
 H          -8.190051      -29.391273       -1.963869
 H          -9.024959      -28.324877       -5.840494
 H          -7.942715      -29.855804       -5.936857
 H          -7.070189      -27.376492       -2.565896
 H          -8.456158      -26.816124       -3.543077
 H          -6.787776      -27.763815       -5.142616
 H          -6.615043      -29.232710       -4.208950
