20
 generated by VMD
 C         -52.907551     -146.677536      -44.551064
 N         -51.813725     -146.774384      -44.906452
 H         -54.179466     -146.319336      -47.494049
 H         -53.936909     -146.672607      -44.359936
 C         -54.032677     -145.352859      -47.933868
 C         -52.976971     -145.215958      -49.017887
 C         -54.937641     -144.165527      -47.605774
 C         -53.391270     -144.574936      -50.231438
 C         -55.334778     -143.412125      -48.895695
 C         -54.119461     -143.251144      -49.895409
 H         -52.548016     -146.198196      -49.327900
 H         -52.040104     -144.654892      -48.691036
 H         -55.922058     -144.474411      -47.098110
 H         -54.439991     -143.492233      -46.860619
 H         -54.106949     -145.199493      -50.924274
 H         -52.678585     -144.177032      -51.039162
 H         -55.893581     -142.414139      -48.614735
 H         -56.081291     -144.034775      -49.393559
 H         -54.560406     -142.886444      -50.904209
 H         -53.365921     -142.521332      -49.513012
