20
 generated by VMD
 C         -13.643858      -28.191210       -3.560585
 N         -14.026266      -27.312702       -4.116711
 H         -10.361116      -28.913654       -2.666935
 H         -10.133274      -27.410784       -3.795032
 C          -9.669207      -28.329327       -3.297576
 C          -9.090483      -29.375078       -4.262188
 C          -8.482726      -27.763330       -2.437177
 C          -7.992565      -28.701111       -5.180118
 C          -7.377787      -27.171289       -3.329106
 C          -6.825811      -28.259068       -4.281160
 H          -9.955608      -29.856159       -4.798603
 H          -8.674639      -30.294575       -3.766236
 H          -8.845271      -26.932499       -1.764671
 H          -8.088354      -28.572504       -1.809553
 H          -8.456359      -27.966875       -5.798998
 H          -7.573436      -29.353071       -5.952190
 H          -6.580640      -26.797527       -2.687440
 H          -7.670561      -26.240143       -3.910780
 H          -6.038732      -27.678814       -4.814404
 H          -6.351251      -29.050457       -3.715118
