20
 generated by VMD
 C         -50.191467     -127.740723      -40.611591
 N         -50.978222     -128.094070      -41.363884
 H         -47.235844     -127.687134      -41.626804
 H         -49.251152     -127.404045      -40.234493
 C         -46.757706     -126.858452      -41.014317
 C         -45.634205     -127.415077      -40.119999
 C         -46.841839     -125.467827      -41.334461
 C         -44.360992     -126.901344      -40.685024
 C         -45.471344     -124.981667      -41.863697
 C         -44.295567     -125.349976      -40.897964
 H         -45.650295     -128.524490      -40.215275
 H         -45.970840     -127.076988      -39.124779
 H         -47.711796     -125.288712      -42.130451
 H         -47.323883     -124.879036      -40.560894
 H         -44.072361     -127.222992      -41.691219
 H         -43.576004     -127.267838      -39.984367
 H         -45.545509     -123.900620      -42.068928
 H         -45.529499     -125.413788      -42.918221
 H         -43.434208     -125.153236      -41.466633
 H         -44.263279     -124.739410      -40.004444
