20
 generated by VMD
 C         -69.597298     -180.117218      -61.814930
 N         -69.371445     -181.068466      -62.413437
 H         -66.642792     -180.472778      -59.191704
 H         -69.779305     -179.258865      -61.161114
 C         -66.173393     -179.561661      -59.634842
 C         -65.338570     -179.713730      -60.891006
 C         -66.113243     -178.221527      -58.891869
 C         -65.326324     -178.436676      -61.730579
 C         -65.739243     -176.944580      -59.696270
 C         -64.937439     -177.243134      -60.956478
 H         -65.602890     -180.522461      -61.599541
 H         -64.320320     -180.052399      -60.612503
 H         -67.038116     -177.922424      -58.295891
 H         -65.317917     -178.418976      -58.170284
 H         -66.443642     -178.352448      -61.906849
 H         -64.638977     -178.646149      -62.580093
 H         -65.174919     -176.196259      -59.160515
 H         -66.694351     -176.377579      -59.885227
 H         -65.236061     -176.355164      -61.603024
 H         -63.828960     -176.998505      -60.941013
