20
 generated by VMD
 C         -13.869274      -28.185434       -3.438219
 N         -14.042232      -27.257799       -4.024615
 H         -10.223752      -28.783905       -2.586852
 H         -10.256340      -27.502710       -3.643296
 C          -9.519353      -28.299210       -3.270762
 C          -9.076147      -29.260227       -4.323251
 C          -8.438238      -27.620590       -2.443092
 C          -7.865755      -28.765017       -5.160798
 C          -7.323362      -27.045094       -3.335624
 C          -6.782107      -28.145170       -4.243619
 H          -9.865043      -29.345936       -5.132740
 H          -8.834178      -30.231287       -3.883230
 H          -8.854626      -26.802021       -1.817498
 H          -8.089626      -28.309105       -1.684074
 H          -8.288975      -28.056538       -5.886125
 H          -7.423419      -29.673758       -5.654531
 H          -6.500089      -26.719568       -2.680762
 H          -7.626711      -26.209259       -3.995301
 H          -6.037458      -27.649355       -4.912574
 H          -6.268053      -28.947847       -3.744585
