20
 generated by VMD
 C         -47.892887     -134.662613      -46.611958
 N         -47.938370     -134.459808      -47.703125
 H         -50.264816     -134.468170      -45.084057
 H         -48.151695     -135.064087      -45.677216
 C         -50.642796     -135.380035      -44.523739
 C         -51.165791     -136.618881      -45.233620
 C         -51.167816     -135.200745      -43.150909
 C         -51.162914     -137.933640      -44.377880
 C         -51.043556     -136.547699      -42.288528
 C         -51.748840     -137.678864      -42.957466
 H         -50.597065     -136.737701      -46.185780
 H         -52.245106     -136.514557      -45.530514
 H         -50.708981     -134.521072      -42.513512
 H         -52.235825     -134.867035      -43.283165
 H         -50.060665     -138.052734      -44.372059
 H         -51.509327     -138.823700      -44.838585
 H         -51.531136     -136.305252      -41.289597
 H         -49.994965     -136.880707      -42.139580
 H         -51.546970     -138.642502      -42.468956
 H         -52.720207     -137.350357      -43.086514
