20
 generated by VMD
 C         -68.248688     -194.285660      -66.191330
 N         -67.762581     -194.399155      -65.164604
 H         -70.935760     -191.622879      -67.471458
 H         -68.683907     -194.242416      -67.231720
 C         -71.488998     -191.407898      -66.568283
 C         -72.435074     -190.224686      -66.407936
 C         -71.560020     -192.433563      -65.439537
 C         -73.869141     -190.610657      -66.296021
 C         -72.885513     -192.302200      -64.644966
 C         -74.118973     -191.996552      -65.502495
 H         -72.279938     -189.648315      -67.325325
 H         -72.028214     -189.598465      -65.519142
 H         -71.577606     -193.463455      -65.785484
 H         -70.659523     -192.354904      -64.744812
 H         -74.282623     -190.841507      -67.313606
 H         -74.581367     -189.881760      -65.834839
 H         -72.910515     -191.472885      -63.880772
 H         -72.989082     -193.189819      -64.004387
 H         -74.183472     -192.799255      -66.336121
 H         -75.012756     -192.057495      -65.008469
