20
 generated by VMD
 C          -1.639301      -16.843639        2.142668
 N          -1.551962      -17.471701        3.059148
 H          -5.361148      -16.763474        0.773649
 H          -4.776136      -17.965714       -0.328672
 C          -5.708181      -17.404839       -0.011495
 C          -6.412929      -16.587593       -0.999728
 C          -6.661990      -18.441940        0.672992
 C          -7.059738      -17.489285       -2.051905
 C          -7.485490      -19.322964       -0.269514
 C          -8.041561      -18.465700       -1.424822
 H          -5.733135      -15.897584       -1.550483
 H          -7.191077      -16.017715       -0.529781
 H          -6.054285      -19.022791        1.301930
 H          -7.342439      -17.793766        1.228904
 H          -6.271579      -17.997625       -2.627459
 H          -7.581756      -16.850330       -2.711378
 H          -8.290081      -19.780678        0.349082
 H          -6.831882      -20.123293       -0.686853
 H          -8.495496      -19.119499       -2.181578
 H          -8.936599      -17.897373       -1.041864
