20
 generated by VMD
 C         -19.490589      -58.092411      -17.126913
 N         -19.256510      -58.614799      -18.135941
 H         -22.643751      -59.845524      -16.764168
 H         -19.886026      -57.536110      -16.330723
 C         -22.963688      -60.660587      -16.206373
 C         -23.955175      -61.561977      -16.827795
 C         -22.103426      -61.057724      -15.019745
 C         -23.360157      -63.019909      -16.833420
 C         -22.067577      -62.503914      -14.761584
 C         -23.054544      -63.469086      -15.420529
 H         -24.055477      -61.214008      -17.852118
 H         -24.948900      -61.504978      -16.433571
 H         -21.055273      -60.691338      -15.290576
 H         -22.217964      -60.394981      -14.122387
 H         -22.424316      -63.061169      -17.477739
 H         -24.158302      -63.702999      -17.225393
 H         -21.928022      -62.808537      -13.757865
 H         -21.122482      -62.819630      -15.187115
 H         -22.707964      -64.500458      -15.411870
 H         -24.056530      -63.425297      -14.836329
