20
 generated by VMD
 C          -2.485442       -9.010960        0.491995
 N          -1.587128       -9.500313       -0.024102
 H          -2.454195      -11.822551        2.600500
 H          -3.451166      -12.448927        3.934190
 C          -3.198060      -12.551712        2.878964
 C          -2.780943      -13.993667        2.636521
 C          -4.511024      -12.134111        2.184714
 C          -3.844057      -14.931508        3.098005
 C          -5.549127      -13.128545        2.634520
 C          -5.221548      -14.627142        2.443133
 H          -1.853601      -14.070879        3.193654
 H          -2.560285      -14.073630        1.616686
 H          -4.830169      -11.100209        2.341060
 H          -4.411637      -12.344109        1.106629
 H          -3.984638      -14.894321        4.182751
 H          -3.472624      -15.916516        2.879553
 H          -6.486987      -12.979549        2.076483
 H          -5.772122      -12.982054        3.706445
 H          -5.958339      -15.230201        3.057507
 H          -5.246722      -15.006738        1.400262
