20
 generated by VMD
 C         -30.391312      -92.999374      -25.081129
 N         -30.020979      -93.870132      -25.718782
 H         -33.490967      -91.753189      -26.472008
 H         -30.743090      -92.272888      -24.420238
 C         -33.990685      -91.378189      -27.312382
 C         -35.201107      -92.270760      -27.668304
 C         -33.306938      -90.831467      -28.529947
 C         -36.156281      -91.513100      -28.669123
 C         -34.211239      -90.232544      -29.618143
 C         -35.413475      -91.062401      -29.924480
 H         -35.800728      -92.534294      -26.930395
 H         -34.775589      -93.174095      -28.032221
 H         -32.461845      -90.206047      -28.291952
 H         -32.782032      -91.645424      -29.040745
 H         -36.554298      -90.696274      -28.068350
 H         -37.066177      -92.153938      -28.851116
 H         -33.652588      -89.980423      -30.587082
 H         -34.645237      -89.240974      -29.266956
 H         -36.234047      -90.685341      -30.452509
 H         -35.086807      -91.925491      -30.509489
