20
 generated by VMD
 C         -50.454475     -145.098938      -45.191986
 N         -50.319317     -145.312897      -44.047554
 H         -53.163132     -143.217194      -45.839787
 H         -50.539070     -144.812668      -46.241138
 C         -53.490685     -143.074478      -46.888214
 C         -52.525063     -143.285828      -48.156086
 C         -54.763275     -142.307617      -47.023056
 C         -53.364765     -143.222565      -49.403580
 C         -55.431278     -142.498474      -48.316921
 C         -54.471481     -142.281418      -49.395378
 H         -51.957916     -144.269501      -48.025387
 H         -51.770702     -142.416885      -48.068924
 H         -55.448940     -142.615555      -46.173183
 H         -54.574699     -141.224777      -46.816261
 H         -53.724422     -144.348572      -49.448132
 H         -52.756344     -143.031387      -50.326168
 H         -56.215790     -141.754822      -48.224342
 H         -55.844543     -143.485611      -48.415516
 H         -55.084118     -142.364471      -50.394695
 H         -53.964706     -141.230423      -49.396610
