20
 generated by VMD
 C         -43.249802     -121.171051      -35.801750
 N         -43.414536     -120.508308      -34.864002
 H         -44.519062     -122.153099      -38.831505
 H         -43.235672     -121.886620      -36.580555
 C         -44.612663     -121.097572      -39.296593
 C         -43.329746     -120.529213      -39.746372
 C         -45.806393     -120.306328      -38.807732
 C         -43.539173     -119.189194      -40.434677
 C         -45.821926     -118.935249      -39.401154
 C         -44.424557     -118.230309      -39.482918
 H         -42.967529     -121.298233      -40.467464
 H         -42.753906     -120.367020      -38.869682
 H         -46.852016     -120.749176      -38.936954
 H         -45.610260     -120.213852      -37.733608
 H         -44.143181     -119.277588      -41.385975
 H         -42.557331     -118.614670      -40.595139
 H         -46.569214     -118.198952      -38.902401
 H         -46.079411     -119.034485      -40.528423
 H         -44.602707     -117.242714      -39.832340
 H         -43.993324     -118.195663      -38.522152
