20
 generated by VMD
 C         -12.351198      -30.813520       -8.458488
 N         -11.966466      -30.576900       -7.442734
 H         -11.722934      -34.625504       -7.776197
 H         -12.798223      -33.936241       -6.704885
 C         -11.901871      -34.480202       -6.718143
 C         -10.731651      -33.789440       -6.076188
 C         -12.110101      -35.838486       -6.098695
 C         -10.995840      -33.585243       -4.644007
 C         -12.372641      -35.762032       -4.550684
 C         -11.245435      -34.906090       -3.897846
 H         -10.419658      -32.834000       -6.591138
 H          -9.876694      -34.418598       -6.294083
 H         -12.881716      -36.459087       -6.566265
 H         -11.214473      -36.444294       -6.196439
 H         -11.856160      -32.881313       -4.452148
 H         -10.136779      -32.992268       -4.164151
 H         -12.448178      -36.853741       -4.116951
 H         -13.356983      -35.326447       -4.423305
 H         -11.396178      -34.679611       -2.815249
 H         -10.299358      -35.490028       -3.987115
