20
 generated by VMD
 C         -54.183815     -148.067368      -45.440544
 N         -54.536705     -148.182220      -44.311504
 H         -54.528370     -147.903168      -48.735973
 H         -54.037079     -148.051514      -46.516613
 C         -54.280804     -146.897888      -48.896179
 C         -53.321190     -146.667267      -49.993504
 C         -55.044865     -145.831467      -48.449059
 C         -53.374023     -145.436798      -50.845718
 C         -55.131916     -144.566956      -49.242088
 C         -53.774498     -144.364166      -49.861980
 H         -53.129475     -147.631882      -50.552910
 H         -52.325985     -146.563889      -49.579117
 H         -56.099491     -146.129913      -48.384743
 H         -54.801682     -145.534836      -47.481709
 H         -54.180931     -145.446915      -51.608219
 H         -52.426590     -145.096344      -51.350826
 H         -55.401875     -143.746399      -48.612869
 H         -55.855392     -144.737396      -49.969318
 H         -53.750362     -143.483658      -50.407104
 H         -53.155571     -144.149612      -49.039364
