20
 generated by VMD
 C          -9.298048      -24.512217        1.179435
 N          -9.741540      -25.339315        1.780120
 H          -6.843625      -23.159416       -0.703241
 H          -8.466895      -22.601179       -1.522981
 C          -7.416564      -22.988958       -1.636846
 C          -7.477633      -24.333349       -2.469854
 C          -6.602021      -21.920170       -2.387014
 C          -7.985413      -24.073320       -3.971369
 C          -7.097266      -21.743587       -3.808872
 C          -7.018835      -23.041443       -4.605742
 H          -8.057330      -25.046288       -1.990384
 H          -6.545951      -24.889845       -2.586936
 H          -6.635128      -20.972572       -1.860386
 H          -5.534412      -22.229630       -2.300214
 H          -9.035604      -23.715673       -4.046470
 H          -8.042304      -25.025694       -4.575095
 H          -6.484387      -21.009453       -4.348718
 H          -8.111938      -21.314817       -3.835210
 H          -7.336856      -22.825253       -5.635032
 H          -5.969339      -23.411963       -4.646143
