20
 generated by VMD
 C         -68.643784     -185.363632      -67.000313
 N         -67.675171     -184.717850      -66.911201
 H         -68.892387     -188.430191      -64.583946
 H         -69.512871     -186.047058      -67.066391
 C         -69.424416     -187.843872      -63.832157
 C         -69.443817     -186.296524      -63.821259
 C         -70.249695     -188.616898      -62.812424
 C         -69.599648     -185.667633      -62.410034
 C         -70.230827     -188.004913      -61.442375
 C         -70.448318     -186.480408      -61.440365
 H         -70.298561     -186.086823      -64.439171
 H         -68.570267     -185.943802      -64.277061
 H         -71.308640     -188.581085      -63.063721
 H         -69.878365     -189.698730      -62.748131
 H         -70.011528     -184.649841      -62.434498
 H         -68.544289     -185.645844      -62.007263
 H         -69.250862     -188.291138      -61.087563
 H         -70.778915     -188.464203      -60.663933
 H         -71.491348     -186.172058      -61.663635
 H         -70.186722     -186.145813      -60.306389
