20
 generated by VMD
 C         -10.825938      -36.956364       -8.123109
 N         -10.114943      -36.804897       -7.307869
 H         -12.881049      -39.046398       -8.079961
 H         -14.233584      -38.986732       -6.877193
 C         -13.897141      -39.501579       -7.846797
 C         -13.733207      -40.954845       -7.751219
 C         -14.882401      -39.085400       -8.923494
 C         -15.004686      -41.735481       -7.610217
 C         -16.167305      -39.849964       -8.803331
 C         -16.025949      -41.332581       -8.704198
 H         -13.096240      -41.300816       -6.916837
 H         -13.182759      -41.322182       -8.622884
 H         -15.096658      -37.998543       -8.897300
 H         -14.445528      -39.188126       -9.874887
 H         -15.398437      -41.534481       -6.599527
 H         -14.862848      -42.807930       -7.543149
 H         -16.774290      -39.538082       -9.703740
 H         -16.624409      -39.443745       -7.933167
 H         -16.995819      -41.719242       -8.299354
 H         -15.796668      -41.825348       -9.638624
