20
 generated by VMD
 C         -57.903030     -164.466995      -56.657639
 N         -57.259418     -163.674500      -57.158150
 H         -60.423550     -164.071106      -53.801086
 H         -58.532692     -165.158112      -56.173294
 C         -60.963165     -164.774353      -54.452747
 C         -61.891586     -165.822449      -53.917126
 C         -61.297626     -164.374466      -55.859104
 C         -63.286118     -165.226791      -53.788326
 C         -62.732136     -163.991867      -55.993698
 C         -63.674278     -164.811401      -55.163002
 H         -61.552887     -166.297211      -53.011833
 H         -61.897743     -166.720764      -54.586246
 H         -60.541943     -163.654282      -56.260952
 H         -61.120468     -165.298706      -56.286503
 H         -63.314457     -164.308167      -53.240353
 H         -63.962780     -166.060150      -53.580879
 H         -63.125092     -163.970581      -57.106564
 H         -62.994534     -162.998367      -55.774967
 H         -64.753471     -164.322952      -55.090530
 H         -63.761967     -165.743195      -55.856846
