20
 generated by VMD
 C         -69.869370     -183.291199      -65.289261
 N         -69.676407     -182.378296      -66.015251
 H         -67.989189     -184.948853      -62.900402
 H         -70.042557     -184.138672      -64.708435
 C         -67.811203     -184.140182      -62.191238
 C         -67.970100     -184.540176      -60.800446
 C         -68.011459     -182.712540      -62.691078
 C         -67.246933     -183.548004      -59.870163
 C         -67.104080     -181.851334      -61.771503
 C         -67.399040     -182.029739      -60.226662
 H         -67.697128     -185.578232      -60.453812
 H         -69.012428     -184.439529      -60.477154
 H         -67.751587     -182.765396      -63.687458
 H         -69.066353     -182.312592      -62.688313
 H         -66.167496     -183.730423      -59.848728
 H         -67.488640     -183.728027      -58.859241
 H         -67.191666     -180.794525      -62.060787
 H         -66.081184     -182.090195      -61.878166
 H         -66.667358     -181.347107      -59.737301
 H         -68.441040     -181.553589      -60.016731
