20
 generated by VMD
 C         -42.043636     -120.294098      -34.697311
 N         -42.401970     -121.314011      -34.213436
 H         -43.781136     -120.166466      -37.644554
 H         -41.518791     -119.505829      -35.261723
 C         -43.989075     -119.328644      -38.341461
 C         -43.067570     -119.010437      -39.492001
 C         -45.239216     -118.548103      -38.056992
 C         -43.860962     -118.837440      -40.724518
 C         -46.044270     -118.610847      -39.411629
 C         -45.200081     -118.044418      -40.546951
 H         -42.416595     -119.842506      -39.516727
 H         -42.626568     -118.054367      -39.101311
 H         -45.864861     -119.044479      -37.297604
 H         -44.991386     -117.486977      -37.647980
 H         -44.076027     -119.824036      -41.101841
 H         -43.396259     -118.336327      -41.495266
 H         -46.871277     -117.907845      -39.239014
 H         -46.488556     -119.659348      -39.533585
 H         -45.928665     -118.270065      -41.336380
 H         -44.992847     -116.882256      -40.377254
