20
 generated by VMD
 C         -44.821571     -122.373428      -35.705120
 N         -44.862736     -123.143921      -34.820927
 H         -45.261211     -122.695450      -39.003090
 H         -44.570564     -121.736183      -36.563133
 C         -44.903694     -121.732452      -39.409866
 C         -43.512672     -121.442741      -39.620060
 C         -46.056103     -120.823898      -39.673103
 C         -43.336018     -120.275826      -40.701397
 C         -45.754208     -119.594582      -40.630554
 C         -44.282631     -119.149498      -40.431728
 H         -42.900528     -122.313210      -40.025021
 H         -43.037891     -121.293930      -38.613277
 H         -46.652733     -121.575142      -40.038082
 H         -46.509453     -120.444679      -38.753376
 H         -43.418034     -120.692604      -41.701420
 H         -42.309681     -119.805328      -40.532089
 H         -46.487789     -118.894585      -40.243771
 H         -46.053936     -120.001411      -41.692566
 H         -44.089630     -118.368599      -41.098976
 H         -44.153152     -118.790764      -39.460445
