20
 generated by VMD
 C         -55.683098     -148.983459      -45.541283
 N         -55.114563     -149.561432      -44.712353
 H         -54.300667     -148.161118      -48.318169
 H         -56.232765     -148.550034      -46.376236
 C         -54.239689     -147.237503      -48.908478
 C         -53.106079     -147.325089      -49.970078
 C         -54.985889     -145.992126      -48.504330
 C         -53.468647     -146.382675      -51.084343
 C         -55.210884     -145.047638      -49.742748
 C         -53.895805     -144.939941      -50.587761
 H         -52.984211     -148.261169      -50.473011
 H         -52.085407     -146.928635      -49.535023
 H         -55.966175     -146.327927      -48.146130
 H         -54.479706     -145.473007      -47.578480
 H         -54.221737     -146.770645      -51.858749
 H         -52.562710     -146.181763      -51.677826
 H         -55.883926     -144.066895      -49.560520
 H         -55.885681     -145.606567      -50.371075
 H         -54.254997     -144.289459      -51.459503
 H         -53.210236     -144.261459      -50.133270
