20
 generated by VMD
 C         -78.092766     -210.387131      -76.153931
 N         -77.146935     -210.984863      -76.273270
 H         -80.483948     -212.659790      -74.974258
 H         -79.046692     -209.782684      -76.062347
 C         -80.220322     -213.273315      -74.179192
 C         -78.783646     -213.379898      -73.679596
 C         -81.207527     -214.047638      -73.372002
 C         -78.713890     -213.258713      -72.198250
 C         -81.169312     -213.755402      -71.853844
 C         -79.804573     -214.007751      -71.259277
 H         -78.344627     -212.504776      -74.135063
 H         -78.208336     -214.310379      -74.049828
 H         -82.137718     -213.703430      -73.804352
 H         -81.306503     -215.198608      -73.596375
 H         -78.960396     -212.199493      -72.058472
 H         -77.701431     -213.352020      -71.762131
 H         -81.870499     -214.377228      -71.444466
 H         -81.472176     -212.665146      -71.734894
 H         -79.664566     -213.526138      -70.273689
 H         -79.593559     -215.041916      -71.230507
