20
 generated by VMD
 C          -3.568692      -17.462725        2.099280
 N          -3.138400      -18.460047        2.344806
 H          -5.570890      -20.453018        0.505434
 H          -5.908145      -21.027653       -1.140987
 C          -6.130146      -20.209494       -0.425852
 C          -5.466861      -18.931839       -0.959605
 C          -7.653697      -20.016895       -0.142782
 C          -6.203387      -18.423058       -2.131244
 C          -8.414693      -19.348797       -1.284777
 C          -7.630214      -18.114290       -1.725830
 H          -4.475555      -19.220629       -1.159316
 H          -5.370368      -18.164774       -0.183172
 H          -8.233658      -20.995327        0.194677
 H          -7.740372      -19.367189        0.790818
 H          -6.152379      -19.173658       -3.021342
 H          -5.735435      -17.507540       -2.574569
 H          -9.435706      -19.031630       -1.032014
 H          -8.527702      -20.115318       -2.102337
 H          -8.129468      -17.741413       -2.640745
 H          -7.649590      -17.323748       -0.983264
