20
 generated by VMD
 C         -74.510429     -200.871857      -66.173126
 N         -73.358551     -200.910599      -66.232727
 H         -76.470352     -198.545303      -68.620712
 H         -75.529716     -200.637497      -65.927673
 C         -75.434692     -198.338913      -68.719673
 C         -74.965263     -197.143326      -67.936226
 C         -74.509048     -199.016769      -69.650688
 C         -73.521065     -196.730148      -68.132202
 C         -73.219398     -198.217804      -69.939423
 C         -72.594124     -197.743698      -68.651520
 H         -75.127785     -197.483795      -66.791199
 H         -75.546753     -196.241409      -68.093170
 H         -74.179108     -199.968658      -69.235855
 H         -75.064400     -199.170547      -70.507568
 H         -73.100792     -196.292816      -67.222198
 H         -73.386429     -196.081528      -68.986465
 H         -73.378113     -197.362991      -70.597137
 H         -72.552765     -198.833496      -70.627983
 H         -72.381027     -198.510422      -67.968651
 H         -71.528862     -197.303177      -68.960548
