20
 generated by VMD
 C         -27.907318      -87.292221      -27.133495
 N         -27.800179      -86.893898      -26.068094
 H         -31.286491      -88.409904      -25.416586
 H         -28.085743      -87.568146      -28.088457
 C         -32.279705      -88.589012      -25.791275
 C         -33.477818      -88.698334      -24.921947
 C         -32.343922      -88.449974      -27.250944
 C         -34.562973      -87.666901      -25.281147
 C         -33.622822      -87.661751      -27.636213
 C         -34.848392      -87.750443      -26.810888
 H         -33.322037      -88.647049      -23.860107
 H         -33.874748      -89.779976      -24.981771
 H         -31.559465      -87.945358      -27.744978
 H         -32.406525      -89.467377      -27.686157
 H         -34.179256      -86.602669      -25.114111
 H         -35.551315      -87.749626      -24.873575
 H         -33.899632      -88.163551      -28.615366
 H         -33.219284      -86.691528      -27.800894
 H         -35.441418      -86.892143      -27.137661
 H         -35.457256      -88.579338      -27.020084
