20
 generated by VMD
 C         -67.122032     -177.785065      -57.243351
 N         -67.740471     -178.679184      -56.816685
 H         -64.142723     -176.232819      -59.173992
 H         -66.506241     -176.949615      -57.640278
 C         -64.163956     -175.158203      -59.423115
 C         -65.481888     -174.484116      -59.519112
 C         -63.285275     -174.741760      -60.544258
 C         -65.383308     -172.941406      -59.505348
 C         -63.017628     -173.192123      -60.296535
 C         -64.234245     -172.292160      -60.284473
 H         -66.100136     -174.752090      -58.702179
 H         -65.928223     -174.842911      -60.464317
 H         -62.314693     -175.263184      -60.623531
 H         -63.672871     -174.794113      -61.520321
 H         -65.112068     -172.656906      -58.456181
 H         -66.343170     -172.515823      -59.786396
 H         -62.271027     -173.042328      -61.170166
 H         -62.442631     -173.088104      -59.401543
 H         -64.032684     -171.233917      -60.073620
 H         -64.402206     -172.377426      -61.368416
