20
 generated by VMD
 C         -58.536598     -152.101639      -49.324055
 N         -59.651604     -152.183487      -49.530449
 H         -55.694065     -150.148102      -47.756985
 H         -57.513683     -152.133072      -49.067764
 C         -55.241043     -149.799164      -48.730843
 C         -54.484066     -150.831940      -49.492249
 C         -54.879272     -148.301178      -49.060448
 C         -54.171116     -150.420898      -50.894882
 C         -54.779877     -147.990067      -50.606125
 C         -53.814915     -148.994156      -51.187012
 H         -54.832516     -151.866074      -49.553188
 H         -53.553455     -150.862228      -49.066658
 H         -55.739929     -147.696014      -48.631100
 H         -53.947502     -148.036514      -48.446045
 H         -55.051350     -150.728882      -51.497200
 H         -53.351162     -151.035339      -51.294819
 H         -54.257469     -146.962585      -50.609558
 H         -55.739315     -148.144470      -51.129543
 H         -53.678982     -148.799850      -52.238636
 H         -52.826359     -148.819153      -50.583271
