20
 generated by VMD
 C          -1.207081      -13.152375        1.002233
 N          -0.492936      -12.986318        0.121561
 H          -4.331192      -13.135232        1.631413
 H          -5.722970      -13.345644        0.565562
 C          -5.138782      -13.810775        1.382695
 C          -5.923655      -14.257209        2.613441
 C          -4.369818      -15.014245        0.734742
 C          -6.899960      -15.383302        2.232368
 C          -5.262734      -16.156734        0.416854
 C          -6.102547      -16.526760        1.601315
 H          -6.297235      -13.361182        3.164496
 H          -5.127537      -14.582095        3.361803
 H          -3.941834      -14.602645       -0.240229
 H          -3.475014      -15.140579        1.419396
 H          -7.662958      -15.013481        1.537157
 H          -7.476780      -15.734030        3.090821
 H          -4.662193      -16.967791       -0.013835
 H          -5.924115      -15.849597       -0.369494
 H          -6.779069      -17.408230        1.378170
 H          -5.412176      -16.909533        2.416139
