20
 generated by VMD
 C         -68.666077     -185.438019      -66.940575
 N         -67.672791     -184.961044      -66.577980
 H         -69.417145     -187.664948      -65.005608
 H         -69.623344     -185.744904      -67.242798
 C         -69.559090     -187.438019      -63.956356
 C         -69.790565     -186.029037      -63.801018
 C         -69.883461     -188.405045      -62.890369
 C         -69.654678     -185.542877      -62.329197
 C         -69.786652     -187.852478      -61.460880
 C         -70.304008     -186.416962      -61.278675
 H         -70.751999     -185.628143      -64.217224
 H         -68.969742     -185.424942      -64.343529
 H         -70.980209     -188.650192      -63.051788
 H         -69.336052     -189.387314      -63.161469
 H         -69.969940     -184.506287      -62.269138
 H         -68.564796     -185.484436      -61.956532
 H         -68.746452     -187.836868      -61.241112
 H         -70.288895     -188.578903      -60.818874
 H         -71.486244     -186.500305      -61.492210
 H         -70.319931     -185.806656      -60.368340
