20
 generated by VMD
 C         -59.252769     -158.345551      -56.153137
 N         -58.859524     -158.553131      -57.174809
 H         -60.701393     -157.961792      -52.819447
 H         -59.714523     -158.128128      -55.232697
 C         -60.067177     -158.823593      -52.916496
 C         -58.444080     -158.699417      -52.785225
 C         -60.612743     -160.177353      -53.266937
 C         -58.155933     -159.731934      -51.620186
 C         -60.110004     -161.256500      -52.226082
 C         -58.636711     -161.180801      -51.854290
 H         -58.292427     -157.654648      -52.454666
 H         -58.030785     -158.981155      -53.721352
 H         -61.740120     -160.175156      -53.390026
 H         -60.180874     -160.482040      -54.261906
 H         -58.596344     -159.266983      -50.709915
 H         -57.145248     -159.906296      -51.393490
 H         -60.223202     -162.353439      -52.507580
 H         -60.797157     -161.066162      -51.398605
 H         -58.472042     -161.791000      -50.987682
 H         -57.979691     -161.561447      -52.587711
