20
 generated by VMD
 C         -50.408913     -145.105179      -45.166550
 N         -50.237358     -145.199463      -44.055531
 H         -53.068737     -143.120941      -45.799648
 H         -50.552341     -145.097672      -46.203659
 C         -53.442486     -143.104340      -46.837311
 C         -52.595951     -143.168762      -48.106945
 C         -54.691189     -142.250916      -46.935482
 C         -53.338268     -143.245178      -49.384747
 C         -55.492477     -142.461609      -48.292015
 C         -54.510330     -142.183060      -49.503185
 H         -52.018589     -144.096863      -47.881317
 H         -51.899357     -142.249008      -48.163300
 H         -55.258385     -142.480942      -45.980473
 H         -54.422832     -141.191391      -46.776550
 H         -53.686871     -144.344757      -49.626873
 H         -52.525856     -143.004074      -50.124359
 H         -56.382812     -141.815094      -48.233055
 H         -55.753658     -143.493423      -48.401806
 H         -55.062695     -142.245132      -50.541439
 H         -53.923073     -141.209702      -49.420753
