20
 generated by VMD
 C         -19.939014      -51.789352      -10.102105
 N         -20.880964      -51.215591       -9.688960
 H         -18.003181      -49.205505      -10.462713
 H         -19.234200      -52.247032      -10.854798
 C         -17.289852      -49.111252      -11.249413
 C         -16.388523      -50.196236      -11.647346
 C         -17.404493      -47.911480      -12.165191
 C         -16.696541      -50.576466      -13.096007
 C         -17.232288      -48.247883      -13.661914
 C         -16.388659      -49.461964      -14.105913
 H         -16.482700      -51.093323      -11.016936
 H         -15.347776      -49.863998      -11.489396
 H         -18.351084      -47.364483      -11.979587
 H         -16.533573      -47.281704      -11.850624
 H         -17.752977      -50.917904      -13.100485
 H         -16.098766      -51.426071      -13.400661
 H         -16.921410      -47.285408      -14.200635
 H         -18.177862      -48.517311      -14.049483
 H         -16.584272      -49.799931      -15.133476
 H         -15.290416      -49.267094      -14.048248
