20
 generated by VMD
 C         -12.646770      -27.471149       -4.645685
 N         -13.636323      -27.993944       -4.591419
 H         -10.449225      -29.867718       -2.368665
 H         -10.597684      -28.460512       -3.500305
 C          -9.962315      -29.222843       -3.113119
 C          -9.503313      -29.924171       -4.412681
 C          -8.773411      -28.648157       -2.342869
 C          -8.483835      -29.177940       -5.266722
 C          -7.940866      -27.751600       -3.204847
 C          -7.405541      -28.460970       -4.407131
 H         -10.364158      -30.126961       -5.097350
 H          -9.123539      -30.830540       -4.080456
 H          -9.145113      -27.973207       -1.533077
 H          -8.168340      -29.508165       -1.941087
 H          -8.968946      -28.400835       -5.832828
 H          -8.071685      -29.855282       -6.016419
 H          -7.042980      -27.370583       -2.653221
 H          -8.537656      -26.916779       -3.502015
 H          -6.803169      -27.814085       -5.066662
 H          -6.658724      -29.240309       -4.069456
