20
 generated by VMD
 C         -39.909092      -99.452324      -28.685404
 N         -39.168697     -100.047661      -28.064697
 H         -37.295227      -98.914253      -30.456705
 H         -40.818600      -98.945099      -29.144630
 C         -36.322716      -98.433067      -30.698200
 C         -35.848736      -98.643433      -32.164253
 C         -35.489418      -98.041092      -29.584906
 C         -34.597851      -97.952522      -32.365173
 C         -34.332344      -97.205734      -29.947010
 C         -33.655815      -97.682228      -31.240776
 H         -36.660439      -98.370110      -32.829002
 H         -35.632133      -99.757782      -32.247833
 H         -36.080990      -97.486481      -28.851305
 H         -35.264217      -99.033363      -29.146074
 H         -34.825958      -96.949959      -32.830475
 H         -33.932926      -98.528572      -33.011208
 H         -33.509693      -97.265823      -29.239223
 H         -34.574127      -96.165504      -29.841017
 H         -32.825325      -96.997856      -31.675913
 H         -33.127094      -98.552444      -30.943523
