20
 generated by VMD
 C         -50.297329     -129.531036      -43.455341
 N         -50.855286     -129.703995      -44.495434
 H         -49.009510     -127.800407      -40.804401
 H         -49.972382     -129.461823      -42.406933
 C         -48.015545     -128.110413      -41.007938
 C         -47.636112     -129.629898      -40.790955
 C         -46.960663     -127.063515      -40.677853
 C         -46.412426     -129.948135      -41.611580
 C         -45.718098     -127.479477      -41.543278
 C         -45.278316     -128.946091      -41.236717
 H         -48.589729     -130.165329      -41.136738
 H         -47.435699     -129.820724      -39.786617
 H         -47.338032     -126.145004      -40.941505
 H         -46.753391     -127.077003      -39.539223
 H         -46.567829     -129.622147      -42.681049
 H         -46.123158     -131.007828      -41.472816
 H         -45.070095     -126.672829      -41.345428
 H         -45.932159     -127.379807      -42.573994
 H         -44.364601     -129.243362      -41.704540
 H         -44.893208     -128.974213      -40.187431
