20
 generated by VMD
 C         -12.627991      -27.717697       -4.445842
 N         -13.735453      -27.882671       -4.515532
 H         -10.687504      -29.561367       -2.690744
 H         -10.540526      -28.048468       -3.514060
 C          -9.962433      -28.956873       -3.239317
 C          -9.444170      -29.853111       -4.325062
 C          -8.746835      -28.504444       -2.392725
 C          -8.475923      -29.014662       -5.229644
 C          -7.791092      -27.703335       -3.219165
 C          -7.321278      -28.479982       -4.388421
 H         -10.337876      -30.107302       -4.884155
 H          -8.848269      -30.741617       -3.969235
 H          -9.148665      -27.854933       -1.613973
 H          -8.244927      -29.281389       -1.873539
 H          -9.092395      -28.170416       -5.662233
 H          -8.038247      -29.674427       -6.044518
 H          -6.972777      -27.511715       -2.569272
 H          -8.270220      -26.755020       -3.528649
 H          -6.722284      -27.733923       -4.960979
 H          -6.638409      -29.253216       -4.090718
