20
 generated by VMD
 C         -60.770512     -154.264252      -51.210999
 N         -61.262005     -154.246170      -52.320438
 H         -57.551514     -153.789963      -52.846771
 H         -60.316734     -154.331848      -50.231426
 C         -56.820889     -153.626999      -52.053719
 C         -57.059319     -153.877304      -50.574139
 C         -55.616131     -152.738907      -52.246181
 C         -55.706173     -154.192520      -49.822456
 C         -54.311260     -152.922623      -51.466015
 C         -54.706554     -153.084152      -50.040714
 H         -57.803085     -154.675003      -50.565121
 H         -57.538250     -152.924362      -50.277111
 H         -55.300980     -152.817947      -53.331642
 H         -55.931313     -151.710510      -52.011658
 H         -55.405224     -155.161591      -50.252010
 H         -55.940491     -154.286133      -48.712582
 H         -53.505436     -152.249619      -51.751202
 H         -53.926170     -153.942841      -51.828396
 H         -53.809952     -153.446426      -49.438881
 H         -55.172890     -152.130966      -49.623608
