20
 generated by VMD
 C         -69.784431     -183.226273      -65.530052
 N         -70.473709     -182.454926      -65.984322
 H         -67.485703     -184.442215      -62.901859
 H         -69.150185     -184.045807      -65.158615
 C         -67.502785     -183.641129      -62.149578
 C         -67.834801     -184.179733      -60.824524
 C         -67.700218     -182.224747      -62.427715
 C         -67.062149     -183.382172      -59.722046
 C         -66.766479     -181.512192      -61.460255
 C         -67.234718     -181.858551      -59.993427
 H         -67.470459     -185.177231      -60.696140
 H         -68.892754     -184.000412      -60.635880
 H         -67.455620     -181.916489      -63.454330
 H         -68.803230     -182.150848      -62.409634
 H         -66.056870     -183.839035      -59.649960
 H         -67.686432     -183.503372      -58.748459
 H         -66.782639     -180.384979      -61.545059
 H         -65.699394     -181.765091      -61.705303
 H         -66.707664     -181.239822      -59.278114
 H         -68.269318     -181.672043      -60.055637
