20
 generated by VMD
 C         -22.572630      -52.258301      -11.761110
 N         -22.433590      -52.685211      -10.627447
 H         -19.889471      -52.195553      -14.113051
 H         -23.088547      -52.100002      -12.696290
 C         -18.859524      -52.310966      -13.862662
 C         -17.916384      -51.708775      -14.847097
 C         -18.370787      -53.129238      -12.673915
 C         -16.531204      -52.329559      -14.581113
 C         -17.203775      -52.348141      -12.076657
 C         -16.106792      -52.082581      -13.126163
 H         -17.805655      -50.632320      -14.708129
 H         -18.307411      -51.831493      -15.860307
 H         -19.214109      -53.280380      -11.958674
 H         -18.017910      -54.154106      -12.988480
 H         -15.911330      -51.816841      -15.303437
 H         -16.583473      -53.386318      -14.827332
 H         -16.711115      -52.663624      -11.144043
 H         -17.670822      -51.423832      -11.878964
 H         -15.803442      -51.053024      -12.957791
 H         -15.276313      -52.746174      -12.999140
