20
 generated by VMD
 C         -69.111839     -180.328995      -59.475159
 N         -68.575951     -180.828506      -60.367508
 H         -67.268433     -177.399017      -59.750843
 H         -69.643829     -179.798386      -58.713852
 C         -66.379814     -176.752472      -59.917580
 C         -66.041092     -176.571442      -61.311897
 C         -65.253975     -177.038834      -58.996918
 C         -64.888779     -175.615234      -61.501854
 C         -64.191368     -175.976913      -59.193287
 C         -63.635498     -176.059479      -60.636440
 H         -66.844177     -176.200851      -61.939663
 H         -65.623856     -177.571411      -61.700867
 H         -65.697342     -176.902573      -58.040440
 H         -64.929237     -178.134003      -59.095802
 H         -65.144814     -174.660370      -61.349586
 H         -64.493050     -175.745300      -62.517544
 H         -63.462002     -176.282425      -58.396084
 H         -64.600822     -175.067459      -58.760960
 H         -62.905731     -175.376083      -61.028809
 H         -63.394646     -177.161713      -60.946995
