20
 generated by VMD
 C         -30.770033      -78.121941      -25.173180
 N         -31.512140      -77.240662      -25.126749
 H         -29.400642      -77.139114      -22.918190
 H         -30.020540      -78.793686      -25.314432
 C         -28.739180      -77.954651      -22.564865
 C         -27.430914      -78.052223      -23.233234
 C         -29.350126      -79.123802      -21.828947
 C         -26.488955      -78.988480      -22.504942
 C         -28.220490      -79.873093      -21.002516
 C         -27.193758      -80.199318      -22.019981
 H         -27.011412      -77.068153      -23.179199
 H         -27.493643      -78.298759      -24.296232
 H         -29.948507      -78.699326      -21.054173
 H         -29.848066      -79.886185      -22.378000
 H         -26.056679      -78.580597      -21.561079
 H         -25.707567      -79.103928      -23.222748
 H         -28.533855      -80.844940      -20.497864
 H         -27.714546      -79.370979      -20.219440
 H         -26.323833      -80.798332      -21.495800
 H         -27.671432      -80.794144      -22.803871
