20
 generated by VMD
 C         -47.786652     -124.750145      -38.243855
 N         -47.163654     -125.636642      -38.753330
 H         -45.191422     -123.179825      -37.719261
 H         -48.397305     -123.972237      -37.879456
 C         -45.010265     -122.820412      -38.747372
 C         -43.877224     -123.495674      -39.476433
 C         -45.743896     -121.803268      -39.543297
 C         -44.255325     -124.040939      -40.795403
 C         -46.046013     -122.231003      -41.046833
 C         -44.950211     -122.900917      -41.709187
 H         -43.606335     -124.301460      -38.727127
 H         -43.046673     -122.877663      -39.564754
 H         -46.580883     -121.550667      -38.993603
 H         -45.102341     -120.885986      -39.636230
 H         -44.782352     -125.021423      -40.752766
 H         -43.318287     -124.286041      -41.390991
 H         -46.478878     -121.359222      -41.625732
 H         -46.957947     -122.882988      -40.797031
 H         -45.350533     -123.357803      -42.626366
 H         -44.197350     -122.182472      -42.027317
