20
 generated by VMD
 C         -69.182182     -180.377243      -60.676186
 N         -69.503532     -181.436707      -60.376148
 H         -67.261383     -177.810532      -59.724079
 H         -68.908951     -179.383926      -60.848522
 C         -66.365295     -177.297272      -59.864628
 C         -65.823059     -177.503815      -61.237545
 C         -65.284012     -177.218903      -58.801819
 C         -64.914330     -176.298706      -61.693573
 C         -64.395157     -176.037582      -59.238541
 C         -63.816540     -176.210434      -60.669746
 H         -66.620903     -177.432373      -61.951851
 H         -65.406898     -178.484940      -61.438778
 H         -65.777229     -177.128723      -57.851425
 H         -64.761650     -178.203659      -58.893524
 H         -65.541580     -175.400940      -61.620575
 H         -64.730270     -176.541550      -62.816578
 H         -63.675613     -176.028122      -58.443378
 H         -65.034523     -175.173340      -59.276466
 H         -63.258430     -175.334732      -61.042946
 H         -63.137394     -177.086105      -60.820030
