20
 generated by VMD
 C         -40.765705     -119.300797      -35.085083
 N         -39.731113     -118.748528      -35.227642
 H         -43.741276     -117.029045      -36.077076
 H         -41.725647     -119.809837      -34.805607
 C         -44.011978     -117.074280      -37.119869
 C         -43.080101     -117.575829      -38.192799
 C         -45.270073     -116.620369      -37.581551
 C         -43.769714     -118.385605      -39.354980
 C         -45.911938     -117.284058      -38.786606
 C         -44.985336     -117.691040      -39.944454
 H         -42.427471     -118.349747      -37.768845
 H         -42.602352     -116.634911      -38.572197
 H         -46.042820     -116.706429      -36.707390
 H         -45.148933     -115.560173      -37.809956
 H         -43.897141     -119.324287      -38.803070
 H         -43.057209     -118.486420      -40.229252
 H         -46.691116     -116.769234      -39.320057
 H         -46.423023     -118.223984      -38.508324
 H         -45.514233     -118.403557      -40.733643
 H         -44.725433     -116.785194      -40.473766
