20
 generated by VMD
 C          -1.639165       -8.710059        0.293775
 N          -2.380412       -9.187450       -0.348320
 H          -2.611778      -10.269559        2.553535
 H          -1.893634      -11.496236        3.686544
 C          -2.787144      -11.256034        3.043020
 C          -2.916106      -12.304800        2.003092
 C          -4.153113      -11.167144        3.828973
 C          -3.247974      -13.679816        2.544124
 C          -4.605788      -12.498446        4.385889
 C          -4.538785      -13.650232        3.381507
 H          -1.980154      -12.438959        1.468928
 H          -3.657589      -12.068505        1.264418
 H          -3.937477      -10.456487        4.632185
 H          -4.869639      -10.632030        3.246649
 H          -2.461736      -14.041818        3.204440
 H          -3.349452      -14.398878        1.745072
 H          -5.643063      -12.465771        4.736690
 H          -3.992429      -12.720706        5.238156
 H          -4.838614      -14.626803        3.851720
 H          -5.429025      -13.411379        2.757805
