20
 generated by VMD
 C          -7.672260      -23.556576        2.018762
 N          -7.613406      -23.153965        3.049459
 H          -9.076116      -23.463413       -1.721403
 H          -9.591141      -22.416224       -2.972372
 C          -8.643395      -22.842211       -2.487063
 C          -7.732408      -23.643110       -3.333948
 C          -7.808510      -21.808250       -1.732631
 C          -6.959784      -22.842602       -4.279427
 C          -7.040356      -20.880781       -2.685486
 C          -6.131590      -21.714380       -3.603220
 H          -8.443219      -24.296844       -3.889564
 H          -7.089210      -24.388430       -2.782794
 H          -8.461963      -21.147964       -1.193444
 H          -7.114751      -22.298519       -1.034180
 H          -7.630448      -22.261866       -4.976344
 H          -6.233212      -23.515329       -4.742273
 H          -6.364087      -20.285177       -2.057428
 H          -7.785680      -20.287239       -3.242028
 H          -5.662325      -21.130394       -4.429456
 H          -5.310623      -22.192970       -3.028770
