20
 generated by VMD
 C         -22.431656      -68.368660      -16.632494
 N         -22.353281      -68.770233      -15.552726
 H         -24.237720      -65.677727      -18.834538
 H         -22.713686      -68.056953      -17.711069
 C         -24.744568      -66.596352      -19.049517
 C         -23.935163      -67.301506      -20.220886
 C         -26.262360      -66.663635      -18.993671
 C         -24.431574      -68.802841      -20.370155
 C         -26.557775      -68.099846      -19.200359
 C         -25.940435      -68.802307      -20.410730
 H         -22.842613      -67.214302      -20.115763
 H         -24.142315      -66.682190      -21.117292
 H         -26.657034      -66.278145      -18.060263
 H         -26.480888      -66.026649      -19.904516
 H         -24.081041      -69.494095      -19.649748
 H         -24.134005      -69.305084      -21.327572
 H         -27.627247      -68.052895      -19.248335
 H         -26.291441      -68.680954      -18.309841
 H         -26.374651      -69.826828      -20.499311
 H         -26.350973      -68.280167      -21.291962
