20
 generated by VMD
 C         -78.732147     -204.295364      -70.511971
 N         -79.892265     -204.460876      -70.400475
 H         -76.666702     -203.438995      -68.525581
 H         -77.726784     -204.073868      -70.844612
 C         -75.755692     -203.101440      -69.058006
 C         -75.643417     -201.686829      -69.629578
 C         -74.446732     -203.753632      -68.871330
 C         -74.663284     -201.787537      -70.823616
 C         -73.201454     -202.935181      -69.154655
 C         -73.251244     -201.906433      -70.325821
 H         -75.313667     -201.047638      -68.813278
 H         -76.659187     -201.432800      -69.981209
 H         -74.431717     -204.204742      -67.869972
 H         -74.513603     -204.693192      -69.505280
 H         -74.764832     -200.779419      -71.319435
 H         -74.931473     -202.576889      -71.576431
 H         -72.335968     -203.554245      -69.221558
 H         -72.928574     -202.327087      -68.260155
 H         -72.757401     -201.045197      -70.021111
 H         -72.625526     -202.246277      -71.126083
