20
 generated by VMD
 C          -1.868803      -13.064437        0.506994
 N          -1.555007      -13.618698        1.427380
 H          -3.543853      -16.023134        1.679929
 H          -3.967822      -15.615027        0.041551
 C          -4.369842      -15.982242        0.988790
 C          -5.445302      -15.110445        1.657765
 C          -4.862943      -17.418230        0.985272
 C          -6.718345      -15.197032        0.874292
 C          -6.150935      -17.529526        0.170245
 C          -7.261830      -16.610468        0.684890
 H          -5.114681      -14.033599        1.611284
 H          -5.606237      -15.460862        2.657124
 H          -3.973649      -18.065886        0.522213
 H          -4.979319      -17.844799        2.056440
 H          -6.526037      -14.783646       -0.144101
 H          -7.438569      -14.491147        1.362350
 H          -6.413664      -18.589174        0.040668
 H          -5.899915      -17.201834       -0.888697
 H          -8.122819      -16.577791        0.024485
 H          -7.608719      -17.042685        1.633145
