20
 generated by VMD
 C         -47.921497     -134.522339      -46.990940
 N         -48.003899     -134.083405      -48.008179
 H         -50.269409     -134.392639      -44.780479
 H         -48.111908     -135.094604      -46.094563
 C         -50.480053     -135.276169      -44.248608
 C         -50.799908     -136.481583      -45.061546
 C         -51.109131     -135.067444      -42.815735
 C         -50.896950     -137.777527      -44.173958
 C         -51.232670     -136.376999      -42.085678
 C         -51.793236     -137.541901      -43.019539
 H         -50.035336     -136.620056      -45.790482
 H         -51.807384     -136.363983      -45.615795
 H         -50.504169     -134.393845      -42.177803
 H         -52.060120     -134.503464      -42.999817
 H         -49.921944     -137.964447      -43.694412
 H         -51.243443     -138.681061      -44.649628
 H         -51.841408     -136.137695      -41.218388
 H         -50.263149     -136.667343      -41.605232
 H         -51.925087     -138.478455      -42.389481
 H         -52.812443     -137.555923      -43.230240
