20
 generated by VMD
 C         -57.543152     -165.976852      -56.578522
 N         -58.055733     -166.818893      -55.959965
 H         -60.705200     -164.964249      -54.398418
 H         -57.178425     -165.056198      -57.068436
 C         -61.616756     -165.321442      -54.897316
 C         -61.831631     -166.679184      -55.472454
 C         -62.387188     -164.202606      -55.422398
 C         -63.314980     -167.020905      -55.802990
 C         -63.866188     -164.632751      -55.658100
 C         -64.002632     -165.851395      -56.604534
 H         -61.320843     -167.333542      -54.924168
 H         -61.165501     -166.620697      -56.373127
 H         -62.262218     -163.226578      -54.791824
 H         -61.898998     -164.060226      -56.347443
 H         -63.928074     -167.222214      -54.939720
 H         -63.255157     -167.914093      -56.434563
 H         -64.450142     -163.888809      -55.927444
 H         -64.439087     -164.802597      -54.752483
 H         -64.992989     -166.182846      -56.726604
 H         -63.464821     -165.696609      -57.507900
