20
 generated by VMD
 C         -68.628784     -192.897034      -66.215317
 N         -68.284912     -193.309326      -67.214325
 H         -69.973724     -189.847473      -65.416183
 H         -69.154617     -192.325485      -65.396889
 C         -70.932945     -190.385895      -65.254539
 C         -71.622818     -190.796616      -66.501198
 C         -71.553886     -190.631363      -63.954479
 C         -72.623123     -192.028763      -66.091148
 C         -73.044731     -190.624924      -64.021873
 C         -73.650414     -191.595978      -65.015251
 H         -70.906319     -191.170593      -67.144051
 H         -72.242935     -189.922928      -66.912430
 H         -71.260277     -191.557281      -63.539852
 H         -71.270294     -189.729599      -63.316414
 H         -72.029236     -192.912109      -65.797890
 H         -73.284981     -192.416519      -66.920433
 H         -73.321548     -189.586411      -64.352943
 H         -73.533524     -190.814285      -63.113792
 H         -74.046074     -192.478485      -64.376282
 H         -74.418114     -191.244156      -65.529251
