20
 generated by VMD
 C         -11.946577      -41.748272       -7.255917
 N         -11.483879      -40.814526       -6.890261
 H         -14.116912      -40.879314       -8.196214
 H         -15.123624      -40.141193       -9.436408
 C         -14.945231      -41.118820       -8.982618
 C         -16.159897      -41.721184       -8.311373
 C         -14.291888      -42.043461      -10.049647
 C         -17.201742      -42.278511       -9.257162
 C         -15.348990      -42.661766      -11.002495
 C         -16.547527      -43.276310      -10.260143
 H         -16.539082      -40.974545       -7.621276
 H         -15.777024      -42.519188       -7.656038
 H         -13.601783      -41.549389      -10.726554
 H         -13.797506      -42.854660       -9.572332
 H         -17.607634      -41.393112       -9.786539
 H         -17.909782      -42.863834       -8.687613
 H         -14.867558      -43.359558      -11.613722
 H         -15.758821      -41.867031      -11.716173
 H         -17.280525      -43.598686      -11.006756
 H         -16.322081      -44.205139       -9.718985
