20
 generated by VMD
 C         -51.120811     -130.778656      -46.209389
 N         -50.403271     -130.253845      -46.902733
 H         -48.103565     -132.231812      -44.408802
 H         -51.930328     -131.294785      -45.803043
 C         -48.052708     -132.409195      -43.362614
 C         -48.567371     -133.753586      -42.978745
 C         -48.117290     -131.199768      -42.381844
 C         -48.253113     -134.050812      -41.583950
 C         -47.877693     -131.610626      -40.967213
 C         -48.616913     -132.908752      -40.623688
 H         -48.287914     -134.612534      -43.535820
 H         -49.692505     -133.729553      -43.102280
 H         -47.307373     -130.507721      -42.716560
 H         -49.094746     -130.740326      -42.721230
 H         -47.176228     -134.174591      -41.429073
 H         -48.769356     -134.895798      -41.145401
 H         -48.188168     -130.666092      -40.333282
 H         -46.834362     -131.893127      -40.787304
 H         -48.520042     -133.226608      -39.537704
 H         -49.692696     -132.565399      -40.583645
