20
 generated by VMD
 C         -30.146389      -75.995132      -23.188345
 N         -30.882195      -75.645279      -23.990191
 H         -29.324394      -78.709122      -21.602005
 H         -29.633955      -76.199059      -22.198158
 C         -28.385750      -78.100029      -21.657944
 C         -27.588428      -78.092865      -22.915709
 C         -27.656784      -77.601585      -20.413715
 C         -26.707815      -76.915550      -23.205967
 C         -26.891327      -76.381363      -20.676043
 C         -25.980225      -76.500137      -21.906965
 H         -28.273384      -78.184990      -23.730286
 H         -27.089352      -78.961090      -23.035442
 H         -28.336233      -77.527512      -19.558033
 H         -26.970398      -78.356094      -20.125061
 H         -27.211483      -76.034599      -23.605446
 H         -25.980906      -77.181152      -23.996706
 H         -26.346895      -76.164017      -19.768036
 H         -27.754343      -75.572838      -20.692715
 H         -25.453245      -75.570747      -21.966597
 H         -25.065041      -77.189461      -21.833271
