20
 generated by VMD
 C         -38.604206     -108.108948      -36.795780
 N         -37.962177     -108.832733      -37.483932
 H         -41.495296     -109.255692      -36.027004
 H         -39.258202     -107.589584      -36.138237
 C         -41.394321     -109.921867      -35.111599
 C         -40.494862     -111.126862      -35.425739
 C         -42.408916     -109.761559      -34.011574
 C         -40.305805     -111.868141      -34.100739
 C         -42.155842     -110.728699      -32.903351
 C         -41.568317     -112.126129      -33.234470
 H         -39.451260     -110.854889      -35.764618
 H         -40.967903     -111.813461      -36.094990
 H         -42.617287     -108.748497      -33.686966
 H         -43.416054     -110.053665      -34.398590
 H         -39.644028     -111.201050      -33.421806
 H         -39.715225     -112.687286      -34.409569
 H         -43.015347     -110.957649      -32.284374
 H         -41.574509     -110.188438      -32.176785
 H         -41.376549     -112.576149      -32.293304
 H         -42.481964     -112.724236      -33.604401
