20
 generated by VMD
 C         -13.721395      -29.336767       -7.348173
 N         -13.449468      -29.075603       -8.395597
 H         -11.553956      -30.253172       -4.715498
 H         -10.100698      -30.163933       -3.729681
 C         -10.674791      -30.848766       -4.316616
 C          -9.837254      -31.423433       -5.412253
 C         -11.295352      -31.964449       -3.435004
 C          -8.716478      -32.354847       -5.033174
 C         -10.086789      -32.847050       -2.902231
 C          -9.161461      -33.371532       -3.985307
 H          -9.346706      -30.619764       -5.942057
 H         -10.531053      -31.874628       -6.090137
 H         -11.838893      -31.586725       -2.548505
 H         -12.016531      -32.552242       -4.016814
 H          -7.893375      -31.744373       -4.553098
 H          -8.200857      -32.892208       -5.866663
 H         -10.472930      -33.610970       -2.261626
 H          -9.402697      -32.217617       -2.256030
 H          -8.263031      -33.825989       -3.497576
 H          -9.639966      -34.278839       -4.487366
