20
 generated by VMD
 C         -12.687247      -26.995617       -2.579700
 N         -12.363994      -27.753153       -1.815421
 H         -10.577553      -26.622765       -4.169459
 H          -9.417919      -26.101536       -5.338056
 C          -9.476253      -26.574747       -4.397928
 C          -8.981601      -28.033419       -4.507183
 C          -8.818139      -25.872679       -3.183849
 C          -7.499090      -28.218143       -4.401573
 C          -7.249728      -26.054129       -3.280839
 C          -6.891764      -27.524677       -3.157579
 H          -9.176541      -28.526449       -5.488110
 H          -9.588924      -28.652603       -3.871459
 H          -9.094681      -24.807516       -3.275678
 H          -9.160218      -26.253979       -2.219242
 H          -6.985699      -27.953999       -5.398222
 H          -7.281954      -29.327019       -4.362065
 H          -6.874979      -25.455547       -2.427602
 H          -6.843795      -25.486212       -4.108541
 H          -5.811823      -27.652380       -3.174191
 H          -7.217798      -28.038303       -2.248492
