20
 generated by VMD
 C         -44.184826     -121.730110      -35.909882
 N         -43.789951     -120.679893      -35.768604
 H         -44.910435     -122.462303      -39.454281
 H         -44.329918     -122.745399      -36.122173
 C         -44.778156     -121.471695      -39.648529
 C         -43.300781     -121.038078      -39.606045
 C         -45.937321     -120.612984      -39.029366
 C         -43.378448     -119.517723      -40.222542
 C         -45.726940     -119.159729      -39.462242
 C         -44.316368     -118.714897      -39.404819
 H         -42.668331     -121.630646      -40.225410
 H         -43.007080     -120.986862      -38.603233
 H         -46.956394     -120.972778      -39.217518
 H         -45.666496     -120.882759      -37.991268
 H         -43.686646     -119.515564      -41.278629
 H         -42.277679     -119.136299      -40.054008
 H         -46.487331     -118.581810      -38.837456
 H         -46.080177     -119.318291      -40.514229
 H         -44.116394     -117.628578      -39.696033
 H         -43.953876     -118.698563      -38.353588
