20
 generated by VMD
 C         -79.004219     -208.118622      -76.088058
 N         -78.334534     -207.639343      -75.217232
 H         -79.465126     -210.138840      -73.333023
 H         -79.459129     -208.481079      -76.969238
 C         -78.715065     -210.173477      -72.535324
 C         -77.441017     -209.248276      -72.389259
 C         -78.929947     -211.295364      -71.474762
 C         -77.040314     -208.921951      -70.980911
 C         -78.578133     -210.810150      -70.106544
 C         -77.201431     -210.193314      -70.077347
 H         -77.618790     -208.322876      -72.986649
 H         -76.528366     -209.650024      -72.952782
 H         -79.945770     -211.656143      -71.639694
 H         -78.213814     -212.138275      -71.731056
 H         -77.700455     -208.029068      -70.756706
 H         -76.022827     -208.484756      -70.858032
 H         -78.733284     -211.462296      -69.143974
 H         -79.215752     -210.008957      -70.022621
 H         -77.001503     -209.648804      -69.153511
 H         -76.454254     -211.011429      -70.164452
