20
 generated by VMD
 C         -12.598408      -27.682316       -1.543926
 N         -11.758085      -27.024090       -1.885506
 H         -10.442179      -26.004297       -4.384315
 H          -9.078991      -25.639126       -5.516009
 C          -9.331735      -26.150089       -4.568208
 C          -9.011106      -27.653465       -4.478415
 C          -8.628647      -25.339035       -3.427121
 C          -7.574138      -27.988100       -4.151616
 C          -7.159990      -25.654184       -3.252812
 C          -6.986588      -27.190763       -2.965024
 H          -9.164995      -28.013983       -5.441526
 H          -9.786098      -28.146618       -3.814845
 H          -8.663443      -24.291422       -3.693728
 H          -9.155640      -25.526630       -2.460696
 H          -6.912441      -27.959288       -5.041479
 H          -7.499122      -29.048637       -3.845537
 H          -6.740484      -25.081017       -2.368287
 H          -6.493994      -25.294081       -4.088241
 H          -5.931608      -27.420107       -2.893352
 H          -7.346534      -27.528908       -1.966806
