20
 generated by VMD
 C         -14.122619      -45.490940       -5.816611
 N         -14.434763      -45.602695       -6.885838
 H         -15.168301      -44.156845       -9.087092
 H         -14.414419      -44.149052      -10.611081
 C         -15.403117      -44.330025      -10.140376
 C         -16.481445      -43.320141      -10.610456
 C         -15.723099      -45.757015      -10.444752
 C         -16.886717      -43.425430      -12.142145
 C         -16.260824      -45.823055      -11.888815
 C         -17.369898      -44.835983      -12.355400
 H         -16.291208      -42.288952      -10.384233
 H         -17.361879      -43.511684       -9.949637
 H         -14.891226      -46.457554      -10.293737
 H         -16.445053      -46.136070       -9.723022
 H         -16.023401      -43.113434      -12.722822
 H         -17.710180      -42.720520      -12.313738
 H         -16.691437      -46.757702      -12.028764
 H         -15.444064      -45.702126      -12.611156
 H         -17.615314      -45.059830      -13.383952
 H         -18.205429      -45.006702      -11.677949
