20
 generated by VMD
 C         -11.547482      -41.899384       -6.121655
 N         -10.915007      -41.427013       -6.890109
 H         -14.674341      -41.298145       -8.399377
 H         -15.434240      -40.611313       -9.783624
 C         -15.306697      -41.485085       -9.249763
 C         -16.644663      -41.952068       -8.724205
 C         -14.542277      -42.481808      -10.199059
 C         -17.523853      -42.470081       -9.803207
 C         -15.557404      -42.912479      -11.234417
 C         -16.762753      -43.572647      -10.580721
 H         -17.137707      -41.148304       -8.180516
 H         -16.509302      -42.727657       -7.998277
 H         -13.681776      -41.884892      -10.649403
 H         -14.160806      -43.290035       -9.578708
 H         -17.735847      -41.577702      -10.465527
 H         -18.405947      -42.977707       -9.385183
 H         -15.059490      -43.577763      -11.867249
 H         -15.909349      -42.039745      -11.898084
 H         -17.349108      -44.073666      -11.367622
 H         -16.516380      -44.371849       -9.862922
