20
 generated by VMD
 C         -51.713184     -146.029419      -43.923748
 N         -51.552048     -146.426559      -44.961613
 H         -53.620148     -145.341812      -46.792027
 H         -52.032623     -145.737198      -42.954510
 C         -53.978695     -144.841537      -47.716957
 C         -52.790909     -144.655441      -48.770786
 C         -54.797115     -143.596893      -47.497818
 C         -53.390785     -143.990952      -50.082783
 C         -55.403145     -143.026001      -48.766235
 C         -54.389332     -142.800125      -49.889145
 H         -52.419689     -145.647552      -48.880520
 H         -51.910076     -144.088043      -48.249889
 H         -55.642811     -143.689804      -46.837383
 H         -54.152184     -142.846954      -47.025520
 H         -53.851742     -144.726639      -50.681053
 H         -52.582218     -143.732559      -50.739552
 H         -55.975304     -142.177246      -48.487091
 H         -56.099113     -143.782211      -49.056435
 H         -54.930717     -142.450974      -50.838139
 H         -53.786800     -141.971466      -49.481880
