20
 generated by VMD
 C          -1.315517      -11.996653        1.511343
 N          -0.992657      -12.503415        0.533989
 H          -3.714769      -13.268207        0.797495
 H          -5.538432      -13.049840        0.557145
 C          -4.742019      -13.669875        0.982542
 C          -4.857331      -13.847322        2.531371
 C          -4.680923      -15.002258        0.227615
 C          -5.913142      -14.867725        2.950130
 C          -5.832006      -15.868771        0.573440
 C          -5.847790      -16.152201        2.052553
 H          -5.015242      -12.901832        3.126696
 H          -3.939930      -14.208260        2.962615
 H          -4.686365      -14.741588       -0.806558
 H          -3.756116      -15.522985        0.384321
 H          -6.898402      -14.437408        2.769056
 H          -5.866978      -15.184757        4.023833
 H          -5.824943      -16.834066        0.042158
 H          -6.787366      -15.390691        0.283112
 H          -6.642498      -16.821249        2.360167
 H          -4.905328      -16.636642        2.360688
