20
 generated by VMD
 C         -30.796967      -77.906303      -25.574749
 N         -31.752312      -77.763817      -26.245047
 H         -29.222567      -78.172890      -22.798990
 H         -30.208630      -78.006302      -24.742765
 C         -28.915857      -79.157814      -23.254721
 C         -27.406425      -79.377419      -23.440567
 C         -29.773102      -80.381516      -22.660872
 C         -26.873419      -79.818359      -22.047047
 C         -29.102287      -80.874290      -21.349504
 C         -27.613647      -81.115784      -21.616810
 H         -27.076460      -78.415894      -23.639145
 H         -27.141695      -80.190002      -24.108404
 H         -30.764618      -79.989784      -22.526035
 H         -29.878456      -81.261604      -23.404020
 H         -26.853218      -79.012833      -21.287157
 H         -25.838911      -80.034698      -22.151150
 H         -29.663818      -81.778618      -21.219540
 H         -29.237328      -80.083199      -20.613157
 H         -27.132105      -81.445602      -20.618694
 H         -27.456524      -81.937752      -22.344540
