20
 generated by VMD
 C         -79.455429     -208.925842      -76.560631
 N         -79.038620     -210.030350      -76.658218
 H         -77.484451     -209.776398      -73.408127
 H         -79.856926     -207.886826      -76.350174
 C         -77.989113     -210.183044      -72.531349
 C         -77.015808     -210.668671      -71.365997
 C         -79.132523     -211.126022      -72.937416
 C         -77.779251     -211.373856      -70.248413
 C         -79.778862     -211.752029      -71.720482
 C         -78.834251     -212.420029      -70.712845
 H         -76.337532     -209.834412      -71.006729
 H         -76.342880     -211.479568      -71.880264
 H         -79.994347     -210.632278      -73.549271
 H         -78.622795     -211.829727      -73.591232
 H         -78.262627     -210.581863      -69.636726
 H         -77.072411     -211.842194      -69.552834
 H         -80.655251     -212.488815      -72.027222
 H         -80.384163     -211.063248      -71.139618
 H         -79.371361     -212.997192      -69.961891
 H         -78.215294     -213.103851      -71.308807
