20
 generated by VMD
 C         -19.455715      -61.549194      -16.163177
 N         -20.081141      -60.978939      -16.939018
 H         -21.666348      -62.993248      -17.966602
 H         -18.785772      -62.165554      -15.599237
 C         -22.594793      -63.419247      -17.680748
 C         -23.740528      -63.559044      -18.599298
 C         -23.140636      -63.619362      -16.297966
 C         -24.811590      -64.666962      -18.515997
 C         -24.023235      -64.821510      -16.041719
 C         -25.215870      -64.907791      -16.999599
 H         -23.285765      -63.770039      -19.621582
 H         -24.281099      -62.593010      -18.705702
 H         -22.181332      -63.473251      -15.634583
 H         -23.873558      -62.825474      -16.083319
 H         -24.409014      -65.650925      -18.801849
 H         -25.771788      -64.550087      -19.178501
 H         -24.474909      -64.716080      -15.063853
 H         -23.430321      -65.715324      -16.022100
 H         -25.747360      -65.924072      -16.936495
 H         -26.055965      -64.292480      -16.638201
