20
 generated by VMD
 C         -38.662613     -108.185295      -36.817787
 N         -37.906609     -108.830788      -37.403683
 H         -41.621090     -109.245453      -36.049641
 H         -39.167320     -107.503845      -36.143768
 C         -41.435566     -110.000084      -35.186642
 C         -40.603725     -111.131332      -35.376106
 C         -42.348316     -109.836708      -34.080631
 C         -40.314404     -111.868095      -34.105263
 C         -42.141426     -110.718727      -32.827232
 C         -41.612812     -112.129021      -33.283665
 H         -39.724224     -110.727325      -35.961170
 H         -41.079842     -111.766624      -36.130798
 H         -42.280956     -108.793358      -33.775833
 H         -43.318752     -110.055588      -34.525120
 H         -39.564632     -111.249878      -33.484253
 H         -39.849869     -112.868629      -34.150776
 H         -43.139408     -110.718567      -32.407761
 H         -41.392426     -110.334373      -32.211525
 H         -41.249931     -112.723198      -32.443516
 H         -42.220188     -112.752518      -34.055954
