20
 generated by VMD
 C         -22.364763      -55.166901      -17.231707
 N         -22.845928      -54.912437      -18.300058
 H         -20.894691      -56.321434      -14.379228
 H         -21.603369      -55.053581      -16.316231
 C         -20.585123      -57.323860      -14.267026
 C         -20.773769      -57.893600      -12.983352
 C         -19.441711      -57.863564      -15.105558
 C         -20.936594      -59.416397      -13.044974
 C         -19.599825      -59.308949      -15.378259
 C         -19.741890      -59.960720      -13.905373
 H         -21.563107      -57.371937      -12.454451
 H         -19.877943      -57.624542      -12.434067
 H         -19.416534      -57.325844      -16.034006
 H         -18.458755      -57.565422      -14.568521
 H         -21.862185      -59.781815      -13.531673
 H         -20.890144      -59.839378      -11.999869
 H         -18.677771      -59.702927      -15.796544
 H         -20.520205      -59.548473      -15.968469
 H         -19.867661      -61.021576      -13.886420
 H         -18.832535      -59.762764      -13.322972
