20
 generated by VMD
 C         -69.022591     -180.563080      -60.987961
 N         -69.793823     -181.237885      -60.398350
 H         -66.992317     -178.353897      -59.541264
 H         -68.296333     -180.099548      -61.598320
 C         -66.258644     -177.672577      -59.905655
 C         -65.892662     -177.772873      -61.357533
 C         -65.362312     -177.177948      -58.755054
 C         -65.058098     -176.576660      -61.702194
 C         -64.449020     -176.099487      -59.203014
 C         -63.871605     -176.262482      -60.670975
 H         -66.763344     -177.866409      -62.014061
 H         -65.256981     -178.664871      -61.378971
 H         -65.955124     -176.721893      -57.934292
 H         -64.794800     -177.997818      -58.255470
 H         -65.515717     -175.607529      -61.680958
 H         -64.657867     -176.581039      -62.789623
 H         -63.693356     -175.939804      -58.423164
 H         -64.887688     -175.110565      -59.208660
 H         -63.241405     -175.345215      -60.900879
 H         -63.237301     -177.138565      -60.731415
