20
 generated by VMD
 C         -79.567070     -206.470352      -75.086632
 N         -79.792763     -206.310089      -73.983459
 H         -78.577759     -206.646042      -71.327690
 H         -79.282944     -206.457275      -76.145493
 C         -77.640182     -206.723984      -70.747475
 C         -76.599854     -205.847610      -71.221291
 C         -77.372726     -207.974930      -70.031151
 C         -75.296516     -205.902817      -70.408424
 C         -76.024368     -207.871674      -69.147621
 C         -74.789276     -207.210831      -69.814774
 H         -77.033852     -204.925369      -71.484741
 H         -76.164825     -206.169373      -72.175102
 H         -78.179222     -208.409332      -69.373726
 H         -77.148254     -208.771133      -70.728600
 H         -75.231873     -205.227051      -69.562592
 H         -74.536430     -205.512955      -71.045784
 H         -75.753250     -208.865860      -68.873055
 H         -76.337738     -207.272675      -68.249878
 H         -73.924591     -207.211044      -69.114357
 H         -74.576485     -207.883118      -70.629761
