20
 generated by VMD
 C         -21.835024      -66.864563      -16.780836
 N         -21.012098      -66.911827      -15.971554
 H         -23.735535      -65.247894      -17.875118
 H         -22.606730      -66.726624      -17.641764
 C         -24.480761      -65.636337      -18.546314
 C         -24.096455      -66.118980      -19.873154
 C         -25.787487      -66.130150      -18.008623
 C         -24.283689      -67.592278      -19.943972
 C         -26.158953      -67.579643      -18.418413
 C         -25.760141      -67.981117      -19.799349
 H         -23.010958      -65.732712      -20.126438
 H         -24.673191      -65.677727      -20.654016
 H         -25.824125      -66.033356      -16.925158
 H         -26.503437      -65.419220      -18.456446
 H         -23.709152      -68.100632      -19.235853
 H         -23.945208      -68.003403      -20.903751
 H         -27.199425      -67.701492      -18.345673
 H         -25.686747      -68.236107      -17.664873
 H         -25.936749      -69.026672      -19.774029
 H         -26.474077      -67.537720      -20.559790
