20
 generated by VMD
 C         -13.199953      -31.040264       -8.257432
 N         -12.785995      -30.091188       -8.620818
 H         -11.571186      -32.660061       -6.891220
 H         -11.970877      -32.288727       -5.141547
 C         -11.437569      -32.971840       -5.796477
 C          -9.924190      -33.131489       -5.387669
 C         -12.173205      -34.321770       -5.769846
 C          -9.914884      -33.851830       -3.964022
 C         -12.125466      -35.009830       -4.420162
 C         -10.637604      -35.228931       -4.075274
 H          -9.477503      -32.090748       -5.339748
 H          -9.450252      -33.782829       -6.097346
 H         -13.258260      -34.176388       -5.986870
 H         -11.698653      -34.967602       -6.539369
 H         -10.374522      -33.186348       -3.248685
 H          -8.889644      -34.162804       -3.755756
 H         -12.570173      -36.023582       -4.505237
 H         -12.664752      -34.369152       -3.705251
 H         -10.585188      -35.612366       -3.060663
 H         -10.105425      -35.932148       -4.750040
