20
 generated by VMD
 C         -79.562805     -206.841736      -74.784714
 N         -80.180664     -206.057755      -74.217979
 H         -78.344559     -206.509903      -71.602509
 H         -78.819443     -207.344467      -75.301384
 C         -77.428314     -206.946350      -71.210861
 C         -76.225037     -206.156479      -71.504738
 C         -77.377281     -208.245255      -70.382751
 C         -75.408546     -206.019943      -70.195396
 C         -76.393448     -208.030090      -69.186272
 C         -74.993706     -207.353638      -69.549751
 H         -76.543053     -205.236023      -71.873260
 H         -75.466362     -206.569824      -72.132881
 H         -78.416016     -208.529938      -69.990273
 H         -77.017723     -209.064178      -71.036644
 H         -75.877441     -205.412292      -69.391068
 H         -74.554611     -205.494217      -70.590797
 H         -76.164238     -208.965225      -68.717308
 H         -76.916870     -207.447098      -68.339844
 H         -74.369881     -207.099121      -68.670769
 H         -74.376518     -207.923660      -70.234871
