20
 generated by VMD
 C         -23.103315      -55.238335      -16.807011
 N         -23.574047      -54.885624      -15.812602
 H         -19.333015      -55.422199      -15.571678
 H         -22.715370      -55.305241      -17.723410
 C         -19.331427      -56.174564      -14.874471
 C         -19.676214      -56.000221      -13.418958
 C         -18.407288      -57.304703      -15.210646
 C         -20.516466      -57.229565      -12.999253
 C         -18.874889      -58.663712      -14.651976
 C         -19.885386      -58.653969      -13.436639
 H         -20.119064      -54.991188      -13.187324
 H         -18.632423      -56.076527      -12.978412
 H         -18.213276      -57.356853      -16.270069
 H         -17.447819      -57.222729      -14.640421
 H         -21.512133      -57.086590      -13.474381
 H         -20.760237      -57.214817      -11.928915
 H         -18.013510      -59.230614      -14.283670
 H         -19.261251      -59.173534      -15.493013
 H         -20.654390      -59.412758      -13.643360
 H         -19.428907      -59.075272      -12.530136
