20
 generated by VMD
 C         -40.689392     -100.063354      -29.784143
 N         -40.399960     -100.251282      -28.667759
 H         -37.399937      -99.951675      -30.621342
 H         -41.125450     -100.005119      -30.822535
 C         -36.399834      -99.443954      -30.768950
 C         -35.926174      -99.457344      -32.223885
 C         -35.400246      -99.419708      -29.764088
 C         -34.869572      -98.454834      -32.506943
 C         -34.243801      -98.384674      -30.007380
 C         -33.831383      -98.282257      -31.415527
 H         -36.874939      -99.301247      -32.845463
 H         -35.523930     -100.419395      -32.444260
 H         -35.937771      -98.985687      -28.869564
 H         -35.071186     -100.398315      -29.567165
 H         -35.279537      -97.427917      -32.546387
 H         -34.295948      -98.716705      -33.468235
 H         -33.434082      -98.672905      -29.314434
 H         -34.496124      -97.420937      -29.706816
 H         -33.202419      -97.417679      -31.562828
 H         -33.083981      -99.127159      -31.406332
