20
 generated by VMD
 C         -38.554504     -111.450760      -36.300255
 N         -38.370171     -110.492996      -36.935616
 H         -40.383045     -114.282402      -34.971745
 H         -38.802902     -112.288216      -35.670727
 C         -41.389820     -114.162529      -35.165932
 C         -41.795452     -114.463135      -36.572887
 C         -42.091057     -113.260841      -34.263893
 C         -43.201546     -114.105042      -36.929249
 C         -43.616230     -113.044800      -34.627533
 C         -43.857803     -112.874901      -36.121315
 H         -41.688339     -115.495544      -36.935753
 H         -41.084949     -114.058769      -37.234962
 H         -42.124065     -113.721657      -33.248302
 H         -41.678349     -112.251732      -34.135487
 H         -43.796310     -115.056030      -36.747318
 H         -43.262119     -113.911057      -37.993061
 H         -44.045177     -112.189339      -33.932930
 H         -44.183460     -113.930428      -34.135246
 H         -44.835468     -112.958145      -36.358891
 H         -43.417850     -111.997818      -36.599617
