20
 generated by VMD
 C         -23.467632      -53.067749      -12.973563
 N         -23.148458      -52.632000      -13.978615
 H         -20.318346      -54.840027      -14.557858
 H         -23.730316      -53.714935      -12.030270
 C         -19.464277      -54.676014      -14.085120
 C         -18.941383      -53.310291      -14.078436
 C         -18.524017      -55.837280      -13.904071
 C         -17.855324      -53.134605      -13.106500
 C         -17.113665      -55.542503      -13.320284
 C         -16.632284      -54.067215      -13.379504
 H         -19.803072      -52.579304      -13.963595
 H         -18.578539      -53.011936      -15.126092
 H         -18.945211      -56.526913      -13.220753
 H         -18.439831      -56.360344      -14.889669
 H         -18.253206      -53.433453      -12.117606
 H         -17.664034      -52.076981      -13.049294
 H         -16.379488      -56.166927      -13.756454
 H         -17.220016      -55.865627      -12.242288
 H         -15.924026      -53.868660      -12.539413
 H         -16.079638      -53.911888      -14.314616
