20
 generated by VMD
 C         -63.673107     -174.804199      -56.110516
 N         -62.696659     -175.328415      -56.425983
 H         -66.381233     -173.364609      -58.495983
 H         -64.612816     -174.395996      -55.828930
 C         -65.617569     -172.630997      -58.796368
 C         -65.712662     -171.190796      -58.495747
 C         -64.601906     -173.078140      -59.766979
 C         -64.376236     -170.647980      -58.080162
 C         -63.237186     -172.283890      -59.721630
 C         -63.356773     -170.716949      -59.382332
 H         -66.303680     -171.138229      -57.566696
 H         -66.250664     -170.612167      -59.376595
 H         -64.465096     -174.175720      -59.535442
 H         -65.117310     -172.936646      -60.785236
 H         -63.861767     -171.346283      -57.313053
 H         -64.399963     -169.609741      -57.618153
 H         -62.589283     -172.579254      -60.545521
 H         -62.659790     -172.663040      -58.870022
 H         -62.407810     -170.151718      -59.222645
 H         -63.907864     -170.128494      -60.166962
