20
 generated by VMD
 C         -68.129860     -188.384689      -66.696800
 N         -68.779137     -188.225143      -67.634705
 H         -68.222534     -187.102493      -63.617249
 H         -67.554718     -188.452057      -65.772919
 C         -69.219002     -187.510956      -63.509544
 C         -69.328651     -188.847382      -62.825523
 C         -70.431931     -186.676514      -63.601238
 C         -70.677917     -189.574936      -63.289742
 C         -71.785110     -187.389572      -63.721111
 C         -71.935951     -188.602570      -62.894417
 H         -69.100395     -188.589874      -61.772785
 H         -68.512199     -189.489517      -63.246723
 H         -70.453995     -185.998764      -62.769917
 H         -70.351822     -185.883286      -64.393387
 H         -70.814972     -190.521439      -62.742523
 H         -70.689934     -189.720856      -64.410355
 H         -71.925278     -187.612213      -64.778458
 H         -72.593193     -186.720642      -63.437050
 H         -71.715813     -188.281006      -61.918125
 H         -72.861809     -189.182617      -63.072418
