20
 generated by VMD
 C         -70.287819     -181.149796      -62.527809
 N         -70.712845     -180.122284      -62.796268
 H         -66.784050     -181.734100      -60.817738
 H         -69.963463     -182.131439      -62.283501
 C         -66.278419     -180.819061      -60.646057
 C         -64.764076     -180.707474      -60.303501
 C         -67.187172     -179.638672      -60.231182
 C         -64.270195     -179.328842      -60.737019
 C         -66.604050     -178.494904      -60.998871
 C         -65.243149     -178.141495      -60.581131
 H         -64.114868     -181.432983      -60.888275
 H         -64.782417     -180.833374      -59.180275
 H         -68.259689     -179.842773      -60.578434
 H         -67.246857     -179.355896      -59.190350
 H         -63.879570     -179.415817      -61.716042
 H         -63.401840     -178.978958      -60.264065
 H         -67.289337     -177.637405      -60.816643
 H         -66.737709     -178.843307      -62.057446
 H         -64.716560     -177.169739      -60.959076
 H         -65.330246     -177.986496      -59.512318
