20
 generated by VMD
 C         -11.668005      -31.957666       -8.989199
 N         -12.371572      -32.494171       -9.629425
 H         -11.174534      -34.058441       -6.746242
 H         -11.978533      -33.910755       -5.219243
 C         -11.687991      -34.628139       -5.993211
 C         -10.795207      -35.697708       -5.371270
 C         -12.965343      -35.240364       -6.473755
 C         -11.548528      -36.693733       -4.498080
 C         -13.699530      -36.262520       -5.676900
 C         -12.733647      -37.323692       -5.242185
 H          -9.894365      -35.210484       -5.058733
 H         -10.403327      -36.273071       -6.223292
 H         -13.598103      -34.355671       -6.773537
 H         -12.729380      -35.776894       -7.395814
 H         -11.928131      -36.271919       -3.524509
 H         -10.932973      -37.507622       -4.112461
 H         -14.517965      -36.622707       -6.245224
 H         -14.194988      -35.869713       -4.757138
 H         -13.250252      -38.026512       -4.573017
 H         -12.337255      -37.898598       -6.119195
