20
 generated by VMD
 C         -68.652702     -185.406570      -66.929062
 N         -67.678200     -184.788025      -66.791634
 H         -69.084694     -188.190277      -64.638702
 H         -69.671509     -185.879410      -67.033638
 C         -69.485390     -187.688049      -63.784882
 C         -69.583923     -186.249252      -63.771420
 C         -70.230461     -188.589920      -62.882717
 C         -69.554237     -185.612213      -62.435444
 C         -69.951454     -187.966507      -61.459164
 C         -70.428658     -186.435211      -61.474464
 H         -70.451294     -185.842896      -64.357300
 H         -68.593567     -185.868546      -64.222160
 H         -71.298965     -188.543152      -63.186256
 H         -69.820213     -189.574936      -62.892109
 H         -69.906807     -184.559906      -62.476612
 H         -68.535553     -185.560272      -62.104015
 H         -68.935440     -188.056534      -60.976021
 H         -70.600281     -188.558075      -60.700237
 H         -71.500259     -186.363022      -61.723797
 H         -70.650734     -186.196259      -60.488464
