20
 generated by VMD
 C         -13.245635      -28.763044       -6.389542
 N         -13.149521      -28.787611       -7.501000
 H         -11.976440      -30.775068       -4.984545
 H         -10.650735      -29.759377       -4.521197
 C         -10.935846      -30.760324       -4.616563
 C         -10.134904      -31.536190       -5.628856
 C         -10.965801      -31.413353       -3.244461
 C          -8.674698      -31.821352       -5.163302
 C          -9.521979      -31.420649       -2.775779
 C          -8.517036      -32.144886       -3.667984
 H         -10.179543      -30.930542       -6.481872
 H         -10.517441      -32.552673       -5.948845
 H         -11.599410      -30.851635       -2.536094
 H         -11.366922      -32.404686       -3.290617
 H          -8.146433      -30.912668       -5.382913
 H          -8.295421      -32.604012       -5.775801
 H          -9.455253      -31.918465       -1.787147
 H          -9.217477      -30.373810       -2.573952
 H          -7.500816      -31.949036       -3.253135
 H          -8.741941      -33.175350       -3.530755
