20
 generated by VMD
 C         -45.703964     -123.690453      -35.501408
 N         -46.277424     -124.661293      -35.429646
 H         -44.760109     -121.950333      -38.080093
 H         -45.239216     -122.752151      -35.763538
 C         -44.670689     -121.677498      -39.093269
 C         -43.346054     -121.350739      -39.692913
 C         -45.860722     -120.689682      -39.517391
 C         -43.423752     -121.277412      -41.174450
 C         -45.834309     -120.515900      -41.006355
 C         -44.484295     -120.233688      -41.596428
 H         -42.720829     -122.161766      -39.445156
 H         -43.131287     -120.327400      -39.167828
 H         -46.962540     -120.800377      -39.230808
 H         -45.556427     -119.677582      -39.051376
 H         -43.845791     -122.242844      -41.552120
 H         -42.436081     -120.963661      -41.482250
 H         -46.566872     -119.889320      -41.234764
 H         -46.103260     -121.431992      -41.482162
 H         -44.583660     -120.086090      -42.724350
 H         -44.089760     -119.234100      -41.257755
