20
 generated by VMD
 C         -31.443727      -77.886589      -26.402117
 N         -31.701969      -77.990402      -27.543324
 H         -29.258856      -79.102493      -23.823683
 H         -31.074715      -78.003624      -25.326323
 C         -29.035339      -79.922089      -23.157923
 C         -27.542442      -80.112511      -23.043440
 C         -29.960062      -81.064926      -22.881765
 C         -27.125727      -80.855881      -21.802460
 C         -29.503849      -81.819839      -21.621410
 C         -28.004086      -82.200684      -21.751398
 H         -26.937115      -79.237755      -23.099148
 H         -27.259535      -80.698555      -23.871435
 H         -31.067041      -80.736679      -22.860851
 H         -29.873428      -81.753052      -23.755121
 H         -27.201756      -80.170563      -20.929485
 H         -26.102777      -81.055977      -21.850166
 H         -30.177748      -82.628326      -21.556921
 H         -29.665939      -81.082085      -20.729448
 H         -27.802671      -82.797150      -20.832666
 H         -27.772310      -82.822075      -22.660284
