20
 generated by VMD
 C         -53.917744     -147.955154      -45.469032
 N         -54.559521     -148.026230      -44.471107
 H         -54.500927     -147.945877      -48.657661
 H         -53.408661     -147.775299      -46.398037
 C         -54.443645     -146.940262      -48.968582
 C         -53.204697     -146.677399      -49.888550
 C         -55.046249     -145.797867      -48.310940
 C         -53.340923     -145.414230      -50.701515
 C         -55.161507     -144.487366      -49.190811
 C         -53.791779     -144.180420      -49.868195
 H         -53.256607     -147.543488      -50.589909
 H         -52.261513     -146.758377      -49.270489
 H         -56.028511     -146.023438      -47.969952
 H         -54.420822     -145.576462      -47.472073
 H         -54.251732     -145.554291      -51.317135
 H         -52.592453     -145.195465      -51.439278
 H         -55.568600     -143.601654      -48.548122
 H         -55.932907     -144.673309      -49.881760
 H         -53.824375     -143.384308      -50.612247
 H         -53.046211     -143.934311      -49.096088
