20
 generated by VMD
 C         -79.787872     -206.967133      -74.242416
 N         -80.388557     -206.085632      -74.667992
 H         -78.104568     -206.650070      -71.774956
 H         -79.033005     -207.618423      -73.953743
 C         -77.169853     -207.232162      -71.660759
 C         -75.804565     -206.426193      -71.565498
 C         -77.152550     -208.483536      -70.745415
 C         -75.372871     -206.177475      -70.113464
 C         -76.878677     -208.201813      -69.275146
 C         -75.513397     -207.443893      -69.353615
 H         -76.014954     -205.592606      -72.304848
 H         -74.962715     -206.993988      -72.055031
 H         -78.141113     -208.968460      -70.760071
 H         -76.496254     -209.245285      -71.115738
 H         -76.158058     -205.547333      -69.691505
 H         -74.331001     -205.854828      -69.935936
 H         -76.846344     -209.029770      -68.523026
 H         -77.653107     -207.562546      -68.963661
 H         -75.326843     -207.385376      -68.329330
 H         -74.769539     -208.179642      -69.846909
