20
 generated by VMD
 C         -38.953125     -107.947952      -37.522491
 N         -39.001240     -106.854980      -37.962856
 H         -40.009987     -108.333344      -34.891640
 H         -38.816658     -108.999672      -37.410599
 C         -40.322300     -109.151672      -34.324657
 C         -39.486176     -110.336761      -34.230427
 C         -41.794807     -109.330978      -34.130085
 C         -39.727196     -111.197487      -32.943218
 C         -42.078682     -110.085022      -32.851486
 C         -41.285637     -111.349495      -32.721825
 H         -38.405735     -110.252808      -34.165718
 H         -39.550117     -111.021019      -35.066448
 H         -42.282707     -108.345108      -34.045486
 H         -42.129436     -109.913185      -35.047001
 H         -39.373848     -110.617027      -32.098625
 H         -39.199539     -112.057724      -33.096653
 H         -43.177322     -110.381935      -32.877609
 H         -41.904747     -109.283508      -32.117332
 H         -41.558460     -111.857780      -31.786892
 H         -41.720901     -112.084877      -33.557007
