20
 generated by VMD
 C         -31.503870      -75.659447      -23.730204
 N         -30.952826      -76.130409      -24.640612
 H         -29.644512      -78.310425      -22.106375
 H         -31.866459      -75.184868      -22.840824
 C         -28.541246      -78.165016      -21.954359
 C         -27.625988      -78.339005      -23.149263
 C         -28.003178      -78.146919      -20.584824
 C         -26.302290      -77.423569      -23.051830
 C         -26.807232      -77.160950      -20.533245
 C         -25.763077      -77.406502      -21.572214
 H         -28.197006      -78.140701      -24.110594
 H         -27.220179      -79.376892      -23.022427
 H         -28.741671      -77.919121      -19.847668
 H         -27.480391      -79.134933      -20.385914
 H         -26.644096      -76.410194      -23.264297
 H         -25.577744      -77.737442      -23.788624
 H         -26.323120      -77.163284      -19.435932
 H         -27.189590      -76.129875      -20.770674
 H         -24.771048      -76.880562      -21.554426
 H         -25.354773      -78.439934      -21.381371
