20
 generated by VMD
 C         -38.371426     -109.706558      -36.437176
 N         -37.575157     -109.027687      -35.900997
 H         -40.626396     -111.552643      -36.932781
 H         -38.837814     -110.322090      -37.136230
 C         -41.303131     -111.804634      -36.144939
 C         -42.023369     -113.085564      -36.332687
 C         -41.984268     -110.915054      -35.240841
 C         -42.456730     -113.797287      -35.032532
 C         -42.115574     -111.603569      -33.856720
 C         -42.870667     -112.846626      -33.896332
 H         -41.525661     -113.762993      -37.070385
 H         -42.957607     -112.699356      -36.742943
 H         -41.475456     -110.026115      -34.965137
 H         -42.978886     -110.584854      -35.483456
 H         -41.618328     -114.534103      -34.692932
 H         -43.356789     -114.340279      -35.287418
 H         -42.667198     -110.791206      -33.289654
 H         -41.075191     -111.675186      -33.324875
 H         -42.761147     -113.414719      -32.898857
 H         -43.878075     -112.755066      -33.908184
