20
 generated by VMD
 C         -71.050003     -198.901901      -64.462349
 N         -70.298058     -198.536942      -65.273369
 H         -72.533234     -196.645248      -66.316536
 H         -71.623047     -199.172867      -63.583984
 C         -72.979324     -195.951523      -67.039688
 C         -73.285385     -194.495956      -66.645294
 C         -73.703430     -196.358948      -68.291000
 C         -73.298416     -193.607285      -67.818054
 C         -74.802628     -195.439835      -68.707436
 C         -74.210526     -194.094421      -68.978874
 H         -72.556320     -194.180115      -65.920982
 H         -74.337585     -194.512146      -66.323578
 H         -73.119820     -196.564072      -69.193092
 H         -74.240013     -197.326263      -68.161514
 H         -72.248680     -193.528900      -68.139038
 H         -73.713394     -192.645218      -67.486404
 H         -75.667419     -195.292847      -68.079674
 H         -75.120865     -195.804977      -69.663811
 H         -73.587082     -194.093246      -69.833282
 H         -75.008453     -193.226227      -69.125954
