20
 generated by VMD
 C         -20.495049      -61.717487      -17.458746
 N         -19.513508      -61.333656      -16.942099
 H         -21.824732      -65.178513      -16.558552
 H         -21.372969      -62.320938      -17.913042
 C         -22.795303      -64.987137      -17.009142
 C         -23.025278      -64.271202      -18.297461
 C         -23.938852      -65.382629      -16.076723
 C         -24.354279      -64.661293      -18.902498
 C         -25.321594      -65.581467      -16.596550
 C         -25.439562      -64.609177      -17.779886
 H         -22.219126      -64.375488      -19.074259
 H         -23.218388      -63.138931      -18.009069
 H         -23.628944      -66.134476      -15.335498
 H         -24.012547      -64.364594      -15.510375
 H         -24.400223      -65.673859      -19.324966
 H         -24.629889      -64.066986      -19.813131
 H         -26.073992      -65.432770      -15.869894
 H         -25.513506      -66.606880      -16.882727
 H         -26.396822      -64.783058      -18.215979
 H         -25.627947      -63.551537      -17.479908
