20
 generated by VMD
 C         -70.237381     -181.182785      -63.628738
 N         -71.082855     -181.942093      -63.286652
 H         -68.094070     -181.411911      -60.871357
 H         -69.476463     -180.453506      -63.814514
 C         -67.149284     -180.823288      -60.847057
 C         -65.794815     -181.454559      -60.500877
 C         -67.356094     -179.373734      -60.536560
 C         -64.544250     -180.624100      -60.702709
 C         -66.138138     -178.558838      -60.904224
 C         -64.870049     -179.130951      -60.232273
 H         -65.587631     -182.393005      -60.967346
 H         -65.808723     -181.914642      -59.472389
 H         -68.223694     -179.068848      -61.081585
 H         -67.624672     -179.438904      -59.410995
 H         -64.311775     -180.447083      -61.783424
 H         -63.666912     -181.094879      -60.195862
 H         -66.298363     -177.504807      -60.779598
 H         -66.097488     -178.741409      -61.988743
 H         -64.010170     -178.559814      -60.441452
 H         -65.084122     -179.041260      -59.068260
