20
 generated by VMD
 C         -67.974220     -178.682709      -58.109406
 N         -66.913109     -178.348495      -57.761265
 H         -65.659538     -176.502914      -58.744236
 H         -68.945206     -178.992676      -58.448238
 C         -65.162933     -175.711533      -59.326336
 C         -66.008148     -174.763397      -60.112980
 C         -63.742016     -175.752731      -59.889812
 C         -65.377312     -173.352493      -60.033646
 C         -63.079468     -174.306213      -59.812664
 C         -63.951527     -173.225418      -60.482281
 H         -66.947792     -174.619644      -59.585548
 H         -66.195686     -175.130661      -61.172386
 H         -63.202953     -176.576691      -59.464012
 H         -63.785873     -176.102875      -60.958130
 H         -65.565132     -172.799789      -59.048950
 H         -65.888901     -172.755569      -60.841606
 H         -62.097687     -174.171356      -60.348110
 H         -62.947197     -174.151550      -58.739338
 H         -63.773300     -172.180099      -60.310669
 H         -64.005013     -173.373154      -61.556908
