20
 generated by VMD
 C         -47.779114     -136.690018      -46.009602
 N         -47.056896     -136.414307      -46.922966
 H         -50.416126     -135.953247      -45.291248
 H         -48.278278     -136.959763      -45.090935
 C         -51.151337     -136.771347      -45.045559
 C         -51.624416     -137.765961      -46.157890
 C         -51.892899     -136.674469      -43.835339
 C         -52.036537     -139.074646      -45.486511
 C         -52.476067     -137.975250      -43.313732
 C         -53.075481     -138.779282      -44.419060
 H         -50.703693     -138.034134      -46.736012
 H         -52.382538     -137.397751      -46.789505
 H         -51.391087     -136.124817      -43.043762
 H         -52.723793     -135.952271      -44.127148
 H         -51.132896     -139.647644      -45.119213
 H         -52.502712     -139.791260      -46.124348
 H         -53.136467     -137.880081      -42.376163
 H         -51.584881     -138.515213      -42.856541
 H         -53.548149     -139.685043      -43.944183
 H         -53.955173     -138.257385      -44.742184
