20
 generated by VMD
 C          -3.731855      -20.238745        3.320123
 N          -4.217983      -19.290918        2.977832
 H          -5.302824      -19.800718       -0.065091
 H          -6.253858      -21.125481       -0.733831
 C          -6.097490      -20.034964       -0.775110
 C          -5.608001      -19.527143       -2.206976
 C          -7.353467      -19.229662       -0.403454
 C          -6.742741      -19.827204       -3.223229
 C          -8.502549      -19.679243       -1.219696
 C          -8.143380      -19.355637       -2.697252
 H          -4.719203      -19.984264       -2.531964
 H          -5.309828      -18.430576       -2.242197
 H          -7.607261      -19.375994        0.723034
 H          -7.204610      -18.083055       -0.450879
 H          -6.785752      -20.919403       -3.324944
 H          -6.551680      -19.454035       -4.225060
 H          -9.357673      -19.091946       -0.978897
 H          -8.800159      -20.723747       -1.180850
 H          -8.975389      -19.780825       -3.285321
 H          -8.300408      -18.286118       -2.913332
