20
 generated by VMD
 C         -31.846485      -76.149742      -24.329132
 N         -31.461367      -76.593140      -25.361492
 H         -29.621050      -77.571846      -22.414406
 H         -32.537556      -75.896675      -23.633202
 C         -28.592207      -77.885651      -22.189291
 C         -27.570084      -78.157639      -23.291559
 C         -28.383402      -78.454849      -20.811611
 C         -26.160675      -77.946899      -22.763418
 C         -26.953770      -78.288765      -20.424372
 C         -25.912731      -78.806725      -21.493696
 H         -27.811619      -77.455811      -24.188553
 H         -27.677826      -79.075676      -23.900732
 H         -28.915604      -77.664726      -20.282822
 H         -28.936129      -79.415398      -20.639057
 H         -26.007215      -76.864471      -22.525366
 H         -25.414797      -78.186455      -23.534101
 H         -26.786905      -78.882256      -19.535925
 H         -26.696287      -77.132645      -20.136421
 H         -24.835379      -78.616081      -21.161335
 H         -26.184299      -79.835373      -21.734503
