20
 generated by VMD
 C         -29.313353      -73.455711      -19.313375
 N         -29.772913      -74.519249      -19.040134
 H         -25.954424      -73.234993      -18.826813
 H         -29.077785      -72.540306      -19.734608
 C         -25.522314      -72.982048      -19.780817
 C         -24.929090      -74.021873      -20.724134
 C         -25.572247      -71.613731      -20.414230
 C         -25.571911      -74.009384      -22.199551
 C         -26.206207      -71.637886      -21.834463
 C         -25.694031      -72.607147      -22.819757
 H         -24.866102      -75.061050      -20.292938
 H         -23.938599      -73.833267      -20.816616
 H         -26.130777      -70.773026      -19.884590
 H         -24.535553      -71.275345      -20.442553
 H         -26.594416      -74.440636      -21.992180
 H         -25.128645      -74.698586      -22.951483
 H         -26.303293      -70.525902      -22.089014
 H         -27.248613      -71.913116      -21.518478
 H         -26.427862      -72.763412      -23.663490
 H         -24.847630      -72.290146      -23.303980
