20
 generated by VMD
 C         -47.893509     -124.883308      -38.456062
 N         -47.098640     -125.634506      -38.748089
 H         -45.399746     -122.933624      -37.765797
 H         -48.756218     -124.191399      -38.302757
 C         -45.077808     -122.942383      -38.801773
 C         -44.013260     -123.678474      -39.393032
 C         -45.688049     -121.828079      -39.605663
 C         -44.368561     -124.166603      -40.826496
 C         -46.079754     -122.234650      -41.052288
 C         -44.879719     -123.025093      -41.654907
 H         -43.663975     -124.565254      -38.833965
 H         -43.088139     -122.936668      -39.379791
 H         -46.649239     -121.556526      -39.058098
 H         -44.999691     -120.990242      -39.442776
 H         -44.860916     -125.126320      -41.082119
 H         -43.383007     -124.488846      -41.348797
 H         -46.401272     -121.350822      -41.591000
 H         -47.004841     -122.757050      -41.240116
 H         -45.259617     -123.526039      -42.610432
 H         -44.058899     -122.339310      -41.996643
