20
 generated by VMD
 C         -30.296127      -74.131073      -20.800735
 N         -30.082472      -75.200836      -20.392672
 H         -27.164856      -74.583794      -19.312962
 H         -30.421320      -73.127060      -20.963425
 C         -26.618740      -74.416222      -20.252991
 C         -26.164265      -75.575523      -21.030193
 C         -25.992786      -73.038422      -20.353292
 C         -25.983511      -75.201080      -22.480539
 C         -25.868689      -72.679482      -21.847008
 C         -25.213919      -73.927940      -22.628420
 H         -26.791252      -76.501617      -20.833872
 H         -25.185833      -75.890945      -20.580866
 H         -26.470621      -72.228134      -19.792515
 H         -25.052319      -73.120811      -19.902029
 H         -26.919754      -74.945732      -23.026449
 H         -25.532309      -76.069321      -22.973707
 H         -25.444227      -71.701614      -22.019575
 H         -26.980459      -72.705956      -22.169739
 H         -25.223017      -73.739273      -23.738400
 H         -24.206718      -74.075172      -22.184084
