20
 generated by VMD
 C         -40.463585     -100.229935      -30.299793
 N         -41.408276     -100.520142      -29.641020
 H         -37.352940     -101.145752      -30.677277
 H         -39.748936      -99.808586      -30.912766
 C         -36.412781     -100.593224      -30.810595
 C         -36.209248     -100.073441      -32.394882
 C         -35.359852     -100.285965      -29.733820
 C         -35.297821      -98.839622      -32.508381
 C         -34.358459      -99.182518      -30.012339
 C         -34.094208      -98.892960      -31.569170
 H         -37.258888      -99.777100      -32.725403
 H         -35.881565     -100.833824      -33.093559
 H         -35.833836      -99.959396      -28.754389
 H         -34.802700     -101.159653      -29.518747
 H         -35.715801      -97.913918      -32.297409
 H         -34.842564      -98.884560      -33.501213
 H         -33.437931      -99.350784      -29.453650
 H         -34.760113      -98.263672      -29.661217
 H         -33.468422      -97.949303      -31.634125
 H         -33.343121      -99.660492      -31.863697
