20
 generated by VMD
 C         -35.283512      -97.632622      -25.540310
 N         -35.383583      -97.623291      -26.703535
 H         -35.910889      -94.539436      -27.882069
 H         -35.323261      -97.582962      -24.368208
 C         -35.386913      -94.527809      -28.854309
 C         -35.894115      -95.558228      -29.833515
 C         -33.942589      -94.043823      -29.034704
 C         -35.697979      -94.998833      -31.281342
 C         -33.736652      -93.439346      -30.373726
 C         -34.240814      -94.392975      -31.493587
 H         -37.009842      -95.666977      -29.764278
 H         -35.468849      -96.580902      -29.819298
 H         -33.729042      -93.355377      -28.173351
 H         -33.388699      -94.959373      -28.895397
 H         -36.330070      -94.097008      -31.435276
 H         -35.956448      -95.695145      -32.051968
 H         -32.705997      -93.090363      -30.655092
 H         -34.390900      -92.643181      -30.365015
 H         -34.246593      -93.824043      -32.374775
 H         -33.331192      -95.208984      -31.528105
