20
 generated by VMD
 C         -78.591003     -209.327255      -77.064262
 N         -77.805389     -209.811035      -77.759933
 H         -79.323235     -211.130936      -73.667130
 H         -79.246216     -208.815765      -76.445969
 C         -79.355087     -212.047913      -73.128601
 C         -78.099670     -212.449631      -72.446999
 C         -80.554008     -213.026291      -72.956902
 C         -78.312889     -212.537186      -70.970726
 C         -80.659760     -213.394470      -71.434166
 C         -79.281731     -213.740952      -70.768791
 H         -77.372803     -211.573257      -72.574585
 H         -77.682617     -213.394089      -72.826790
 H         -81.551872     -212.683655      -73.284431
 H         -80.464745     -213.988205      -73.620758
 H         -78.731110     -211.534027      -70.789009
 H         -77.406090     -212.722198      -70.376976
 H         -81.322235     -214.132462      -71.291412
 H         -80.954376     -212.460388      -70.938690
 H         -79.635841     -213.852737      -69.711380
 H         -78.837952     -214.640228      -71.247131
