20
 generated by VMD
 C         -11.161920      -34.584782       -9.057021
 N         -10.722403      -35.367214       -8.346936
 H         -12.203525      -37.125374       -7.543546
 H         -13.329974      -37.023720       -6.184937
 C         -13.039077      -37.648190       -7.090812
 C         -12.588499      -39.034508       -6.707322
 C         -14.204594      -37.624847       -8.026055
 C         -13.760756      -39.917664       -6.238551
 C         -15.337305      -38.517025       -7.512523
 C         -14.876524      -39.902493       -7.199127
 H         -11.854204      -38.922096       -5.863360
 H         -11.967956      -39.563766       -7.496826
 H         -14.535245      -36.602180       -8.044621
 H         -13.946131      -37.840099       -9.121169
 H         -14.132740      -39.622383       -5.235377
 H         -13.376929      -40.969402       -6.077140
 H         -16.048252      -38.599625       -8.274742
 H         -15.802622      -38.012001       -6.631721
 H         -15.666919      -40.517319       -6.805004
 H         -14.579897      -40.333103       -8.155002
