20
 generated by VMD
 C         -19.455923      -60.526230      -17.863756
 N         -19.923494      -59.455223      -17.890820
 H         -22.861927      -59.878059      -15.897626
 H         -18.697159      -61.436367      -18.036615
 C         -23.189623      -60.855450      -16.056810
 C         -23.437439      -61.573540      -17.392029
 C         -23.321186      -61.701683      -14.794795
 C         -22.626883      -62.951637      -17.331888
 C         -23.144442      -63.204769      -14.812538
 C         -23.081877      -63.860718      -16.170546
 H         -23.063822      -60.941811      -18.209457
 H         -24.452871      -61.912838      -17.486311
 H         -22.879250      -61.247517      -13.838480
 H         -24.423622      -61.445774      -14.583182
 H         -21.521423      -62.768246      -17.324448
 H         -22.995138      -63.466991      -18.251652
 H         -23.946142      -63.655060      -14.189631
 H         -22.350653      -63.618282      -14.166524
 H         -22.404112      -64.669075      -16.074041
 H         -24.073376      -64.271446      -16.262360
