20
 generated by VMD
 C         -22.675430      -52.305065      -11.822058
 N         -22.621601      -52.623222      -10.738025
 H         -19.923426      -52.197418      -13.930764
 H         -22.998911      -52.195171      -12.670706
 C         -18.930052      -52.464340      -13.885033
 C         -17.965725      -51.823917      -14.806564
 C         -18.368710      -53.307175      -12.760295
 C         -16.518961      -52.284771      -14.629584
 C         -17.114912      -52.645336      -12.095084
 C         -16.099573      -52.093937      -13.122591
 H         -18.065163      -50.680573      -14.624379
 H         -18.189796      -52.017601      -15.848907
 H         -19.107727      -53.429970      -12.004814
 H         -18.158712      -54.324425      -13.159150
 H         -15.849031      -51.636066      -15.216252
 H         -16.388395      -53.334179      -14.925477
 H         -16.672672      -53.358089      -11.271454
 H         -17.457335      -51.707428      -11.645694
 H         -15.920317      -51.002319      -12.923376
 H         -15.154695      -52.650833      -12.938099
