20
 generated by VMD
 C          -2.760044       -9.653425        0.103033
 N          -1.900624       -8.912858        0.253331
 H          -2.071745      -11.426250        3.044802
 H          -2.765003      -12.394992        4.257681
 C          -2.828249      -12.227291        3.167335
 C          -2.574807      -13.557819        2.447032
 C          -4.173085      -11.717696        2.789323
 C          -3.644294      -14.529990        2.929116
 C          -5.317342      -12.646057        3.097811
 C          -5.015318      -14.029765        2.528837
 H          -1.530537      -13.845177        2.680196
 H          -2.620559      -13.419865        1.378865
 H          -4.315868      -10.714643        3.194096
 H          -4.111682      -11.477553        1.735986
 H          -3.556360      -14.696569        3.992768
 H          -3.433773      -15.483078        2.458597
 H          -6.320637      -12.318325        2.691948
 H          -5.490235      -12.757069        4.204105
 H          -5.683476      -14.734684        3.038892
 H          -5.224218      -14.167754        1.492022
