20
 generated by VMD
 C         -22.360165      -68.223251      -16.615969
 N         -21.979860      -68.450912      -15.536670
 H         -24.346405      -65.817245      -18.212784
 H         -22.789379      -68.056732      -17.561026
 C         -24.690796      -66.549202      -18.975555
 C         -24.043306      -67.149971      -20.136631
 C         -26.189537      -66.573921      -18.917990
 C         -24.396532      -68.626175      -20.286028
 C         -26.590477      -67.953354      -19.188475
 C         -25.935900      -68.692291      -20.371763
 H         -22.962345      -66.978760      -20.143841
 H         -24.505089      -66.658379      -21.114822
 H         -26.491783      -66.213562      -17.943907
 H         -26.462496      -65.968422      -19.717291
 H         -23.881004      -69.273964      -19.609203
 H         -24.119308      -69.033363      -21.229023
 H         -27.668404      -67.996361      -19.329557
 H         -26.482883      -68.531670      -18.260187
 H         -26.404400      -69.672401      -20.395363
 H         -26.103493      -68.114494      -21.314819
