20
 generated by VMD
 C         -22.901461      -68.481110      -16.607069
 N         -23.026155      -69.254890      -15.730875
 H         -24.074123      -65.892754      -19.171995
 H         -22.938498      -67.913826      -17.463049
 C         -24.542608      -66.863167      -19.300816
 C         -23.949049      -67.623825      -20.413162
 C         -26.008289      -66.969246      -18.970036
 C         -24.414246      -69.053719      -20.496593
 C         -26.645370      -68.386467      -19.254450
 C         -26.015320      -68.918465      -20.539902
 H         -22.929348      -67.627220      -20.186529
 H         -24.205494      -67.079865      -21.326210
 H         -26.267546      -66.844124      -17.816113
 H         -26.612938      -66.207420      -19.511917
 H         -24.059738      -69.721489      -19.581964
 H         -23.943840      -69.536110      -21.426035
 H         -27.771307      -68.319717      -19.215490
 H         -26.325600      -69.067741      -18.427814
 H         -26.228909      -69.896423      -20.811008
 H         -26.251892      -68.267479      -21.340250
