20
 generated by VMD
 C         -26.934052      -72.105293      -17.506964
 N         -27.432726      -73.126686      -17.307959
 H         -24.550064      -70.072891      -18.766045
 H         -26.405563      -71.193062      -17.863947
 C         -25.089067      -70.470428      -19.636997
 C         -24.258606      -71.587990      -20.310251
 C         -25.667067      -69.530525      -20.512411
 C         -25.172438      -72.151909      -21.445393
 C         -26.604145      -70.120972      -21.493799
 C         -25.897049      -71.160904      -22.319225
 H         -23.873903      -72.320190      -19.564524
 H         -23.320005      -71.194603      -20.876930
 H         -26.263529      -68.788445      -20.007416
 H         -24.821829      -69.030045      -21.000046
 H         -25.936872      -72.685059      -20.892704
 H         -24.610811      -72.859840      -22.017286
 H         -26.963087      -69.244774      -22.170738
 H         -27.530668      -70.635048      -20.950005
 H         -26.572710      -71.506004      -23.101698
 H         -25.180662      -70.695259      -22.938517
