20
 generated by VMD
 C         -78.680229     -208.827820      -77.086891
 N         -79.480118     -208.489197      -76.283371
 H         -78.532974     -209.383118      -73.355949
 H         -77.893562     -209.167450      -77.796700
 C         -78.287987     -209.945053      -72.471786
 C         -77.071289     -209.698196      -71.659515
 C         -79.130272     -211.062149      -72.204124
 C         -77.158073     -210.198441      -70.245087
 C         -79.334511     -211.444946      -70.687347
 C         -77.907600     -211.507370      -70.109795
 H         -76.847702     -208.638275      -71.747971
 H         -76.138626     -210.118073      -72.128014
 H         -80.117645     -210.565750      -72.501213
 H         -78.969948     -211.925674      -72.860878
 H         -77.702415     -209.435791      -69.696793
 H         -76.250961     -210.242233      -69.669807
 H         -79.917336     -212.443527      -70.739494
 H         -79.961792     -210.686768      -70.203178
 H         -77.980927     -211.830994      -69.028091
 H         -77.342041     -212.381561      -70.544609
