20
 generated by VMD
 C         -18.209169      -49.261932       -8.225392
 N         -19.159706      -49.846542       -8.271599
 H         -16.341206      -47.638199       -9.931408
 H         -16.807579      -49.054531      -10.842030
 C         -16.563490      -48.029110      -10.928832
 C         -15.354745      -47.829201      -11.869716
 C         -17.739655      -47.258564      -11.534109
 C         -15.723131      -48.603863      -13.120651
 C         -17.980780      -47.563595      -13.021919
 C         -16.753025      -47.821381      -13.841040
 H         -14.568213      -48.294312      -11.274774
 H         -15.184272      -46.774231      -12.159962
 H         -18.709948      -47.428028      -11.027636
 H         -17.494963      -46.176903      -11.439460
 H         -16.145300      -49.581955      -12.882618
 H         -14.899727      -48.798882      -13.788847
 H         -18.540552      -46.750111      -13.591467
 H         -18.590620      -48.480484      -13.070570
 H         -17.036741      -48.312588      -14.729604
 H         -16.312981      -46.920811      -14.147978
