20
 generated by VMD
 C         -31.170309      -75.714409      -21.560738
 N         -32.169563      -75.221092      -21.194456
 H         -27.799480      -74.786598      -20.289999
 H         -30.188192      -76.083794      -21.809093
 C         -26.817028      -75.066315      -20.539225
 C         -26.405363      -76.239830      -21.289068
 C         -25.824940      -73.971558      -20.417381
 C         -25.986158      -75.790321      -22.749851
 C         -25.355841      -73.526947      -21.724710
 C         -24.945137      -74.726616      -22.598726
 H         -27.234543      -77.071793      -21.442921
 H         -25.509445      -76.578644      -20.719475
 H         -26.011499      -73.160446      -19.830074
 H         -25.000702      -74.339027      -19.837036
 H         -26.850491      -75.375244      -23.246651
 H         -25.649574      -76.675995      -23.294409
 H         -24.478195      -72.887909      -21.616745
 H         -26.213612      -73.058235      -22.202833
 H         -24.677887      -74.500183      -23.637611
 H         -23.992525      -75.158676      -22.273132
