20
 generated by VMD
 C         -68.117432     -188.315308      -66.633232
 N         -68.810410     -188.406952      -67.538086
 H         -68.339821     -187.117554      -63.844486
 H         -67.487534     -188.141922      -65.762756
 C         -69.287247     -187.578064      -63.527977
 C         -69.365417     -188.998810      -62.957176
 C         -70.479416     -186.600235      -63.544788
 C         -70.688934     -189.541306      -63.330814
 C         -71.810059     -187.307114      -63.774414
 C         -71.791153     -188.675964      -62.969009
 H         -69.394997     -189.005051      -61.896183
 H         -68.563774     -189.586456      -63.200180
 H         -70.498665     -186.151840      -62.530689
 H         -70.321899     -185.913071      -64.463638
 H         -70.823509     -190.512375      -62.775085
 H         -70.709724     -189.852158      -64.338226
 H         -71.908226     -187.551361      -64.814514
 H         -72.623268     -186.668884      -63.368961
 H         -71.891335     -188.478729      -61.891121
 H         -72.682739     -189.010483      -63.271137
