20
 generated by VMD
 C         -49.590683     -141.578094      -45.673672
 N         -49.627949     -142.375702      -44.877087
 H         -51.724106     -138.722443      -46.164761
 H         -49.684731     -140.782104      -46.394184
 C         -52.255016     -139.538284      -46.523647
 C         -52.840237     -139.592484      -47.850384
 C         -52.917156     -140.213974      -45.343136
 C         -53.059834     -141.071991      -48.172386
 C         -53.343643     -141.624084      -45.722229
 C         -53.924427     -141.813797      -47.196392
 H         -52.109001     -139.150024      -48.490318
 H         -53.695267     -138.910767      -47.881073
 H         -52.221710     -140.326233      -44.450634
 H         -53.911938     -139.643204      -45.076206
 H         -52.082664     -141.469025      -48.229244
 H         -53.374485     -141.311798      -49.133636
 H         -54.045395     -142.165588      -45.010426
 H         -52.416023     -142.311874      -45.689362
 H         -54.044151     -142.827728      -47.364300
 H         -54.876926     -141.399170      -47.351349
