20
 generated by VMD
 C         -47.239082     -137.870255      -46.191177
 N         -47.233070     -137.109558      -47.088585
 H         -50.325054     -137.191238      -44.359959
 H         -47.198814     -138.369522      -45.210964
 C         -51.342896     -137.407791      -44.676006
 C         -51.435993     -138.152618      -46.066288
 C         -52.573902     -137.195862      -43.958782
 C         -52.125481     -139.442276      -45.910534
 C         -53.407707     -138.574753      -43.817696
 C         -53.544983     -139.202454      -45.270958
 H         -50.365742     -138.179993      -46.418365
 H         -51.922413     -137.558640      -46.739311
 H         -52.339809     -136.885620      -42.912060
 H         -53.156288     -136.322021      -44.366257
 H         -51.518078     -140.121796      -45.266647
 H         -52.157402     -140.115479      -46.772861
 H         -54.400024     -138.363541      -43.314034
 H         -53.049255     -139.265244      -42.993755
 H         -54.038307     -140.201767      -45.263672
 H         -54.228691     -138.703705      -45.816082
