20
 generated by VMD
 C          -6.341421      -22.377932        1.907013
 N          -6.350545      -22.952065        2.883668
 H          -5.650907      -19.593838       -0.524203
 H          -6.921463      -20.728437       -0.310441
 C          -6.341987      -20.210869       -1.017268
 C          -5.786319      -21.312771       -1.925777
 C          -7.131516      -19.212307       -1.829692
 C          -6.949388      -22.016359       -2.687095
 C          -8.390065      -19.826109       -2.568294
 C          -7.820958      -20.973457       -3.477824
 H          -5.221358      -22.031525       -1.342060
 H          -4.974410      -20.970112       -2.690251
 H          -7.573653      -18.429262       -1.143723
 H          -6.508757      -18.741125       -2.686514
 H          -7.588704      -22.573318       -1.967549
 H          -6.473882      -22.686394       -3.445787
 H          -8.857055      -19.037308       -3.214621
 H          -9.075252      -20.278234       -1.839267
 H          -8.665667      -21.437147       -3.992424
 H          -7.220277      -20.531567       -4.305063
