20
 generated by VMD
 C         -67.870605     -185.194656      -68.088234
 N         -67.595230     -185.548935      -67.016548
 H         -69.791985     -185.912338      -64.677765
 H         -68.111763     -184.871674      -69.074905
 C         -69.919395     -186.203613      -63.604313
 C         -70.883759     -185.494415      -62.650784
 C         -69.194466     -187.350082      -63.067223
 C         -70.196053     -185.217850      -61.357555
 C         -68.730766     -187.230682      -61.590206
 C         -69.787827     -186.522766      -60.681492
 H         -71.789536     -186.113525      -62.596462
 H         -71.206200     -184.519440      -63.107246
 H         -69.850914     -188.239594      -63.180721
 H         -68.238640     -187.661423      -63.638992
 H         -70.638748     -184.494370      -60.702599
 H         -69.264595     -184.668472      -61.619579
 H         -67.716995     -186.652435      -61.625111
 H         -68.583405     -188.179550      -61.061409
 H         -70.864769     -187.122467      -60.434017
 H         -69.190361     -186.382126      -59.706711
