20
 generated by VMD
 C         -58.576839     -161.402512      -56.344009
 N         -58.405281     -160.227829      -56.454113
 H         -59.615398     -164.993164      -55.125198
 H         -58.763176     -162.479538      -56.202793
 C         -60.111431     -164.105392      -54.717064
 C         -59.809258     -163.564362      -53.338150
 C         -61.585114     -164.173813      -54.960716
 C         -60.320602     -162.165970      -53.218777
 C         -62.266926     -162.901474      -54.573486
 C         -61.849674     -162.162842      -53.315685
 H         -58.788406     -163.642410      -53.163025
 H         -60.276379     -164.079269      -52.582664
 H         -61.797325     -164.342148      -56.067554
 H         -62.044636     -165.054184      -54.565178
 H         -59.963726     -161.573227      -54.075809
 H         -60.021381     -161.568497      -52.260010
 H         -63.368923     -163.163834      -54.362514
 H         -62.089054     -162.187866      -55.456059
 H         -62.189812     -161.056961      -53.373325
 H         -62.338551     -162.498657      -52.378208
