20
 generated by VMD
 C         -60.891071     -155.110703      -52.894310
 N         -60.878262     -154.207916      -52.194210
 H         -57.962303     -154.345291      -52.680805
 H         -60.912952     -155.942322      -53.599846
 C         -57.156078     -154.153961      -51.999569
 C         -57.362434     -154.129120      -50.565449
 C         -55.857513     -153.659821      -52.469563
 C         -56.267014     -154.558716      -49.696053
 C         -54.605991     -154.111954      -51.537899
 C         -54.994511     -153.767639      -50.154964
 H         -58.221333     -154.724762      -50.242046
 H         -57.651409     -153.060318      -50.480629
 H         -55.576851     -154.153046      -53.408882
 H         -55.859470     -152.578568      -52.506008
 H         -56.378201     -155.704666      -49.800503
 H         -56.562092     -154.300888      -48.656429
 H         -53.704491     -153.589966      -51.947647
 H         -54.347862     -155.196228      -51.604919
 H         -54.233551     -154.025375      -49.498238
 H         -55.247417     -152.613434      -50.161869
