20
 generated by VMD
 C         -60.666229     -172.177597      -55.267479
 N         -60.026123     -173.091461      -54.887409
 H         -62.770939     -170.642487      -57.387981
 H         -61.046303     -171.269882      -55.768848
 C         -63.254669     -169.662659      -57.105774
 C         -62.588844     -168.271744      -57.495113
 C         -64.819389     -169.975647      -57.244755
 C         -63.234272     -167.825333      -58.778484
 C         -65.269653     -169.408630      -58.577477
 C         -64.779877     -167.989441      -58.858013
 H         -61.539936     -168.344894      -57.555588
 H         -62.890530     -167.596466      -56.583614
 H         -64.989441     -171.050949      -57.206257
 H         -65.235603     -169.487717      -56.342686
 H         -62.819748     -168.397217      -59.677746
 H         -62.890171     -166.778656      -58.879063
 H         -66.315140     -169.286270      -58.430279
 H         -64.971344     -170.035812      -59.369766
 H         -65.157272     -167.603271      -59.791748
 H         -65.068741     -167.187546      -58.123829
