20
 generated by VMD
 C         -63.041473     -174.876968      -54.759689
 N         -62.970905     -174.301208      -55.749462
 H         -63.894810     -173.372238      -57.971008
 H         -63.063072     -175.342972      -53.776215
 C         -64.090660     -172.373032      -58.368095
 C         -64.394112     -171.107910      -57.636742
 C         -64.394203     -172.219986      -59.829990
 C         -63.858788     -169.850937      -58.272995
 C         -64.044754     -170.884247      -60.452530
 C         -64.393867     -169.749832      -59.597012
 H         -63.927681     -171.040268      -56.684532
 H         -65.441917     -170.931961      -57.408325
 H         -63.895035     -172.961792      -60.447769
 H         -65.514320     -172.318192      -60.061539
 H         -62.840446     -169.898560      -58.248463
 H         -63.950676     -168.965897      -57.674831
 H         -64.550941     -170.740707      -61.421360
 H         -62.935287     -170.854843      -60.584183
 H         -63.943745     -168.957016      -60.089722
 H         -65.461754     -169.520172      -59.683125
