20
 generated by VMD
 C          -1.317460      -11.986608        1.508600
 N          -1.001000      -12.494069        0.546573
 H          -3.750200      -13.277878        0.874488
 H          -5.516885      -12.964265        0.601752
 C          -4.745057      -13.665951        0.979827
 C          -4.845361      -13.854569        2.509135
 C          -4.672280      -14.997582        0.226211
 C          -5.894343      -14.854134        2.957359
 C          -5.838167      -15.878889        0.581208
 C          -5.853097      -16.140190        2.059690
 H          -4.960857      -12.923293        3.130172
 H          -3.905156      -14.187582        2.963120
 H          -4.716990      -14.762925       -0.785170
 H          -3.785344      -15.546969        0.334286
 H          -6.907672      -14.409698        2.861400
 H          -5.846337      -15.168372        4.032833
 H          -5.818158      -16.865549        0.018141
 H          -6.769967      -15.364130        0.275125
 H          -6.620216      -16.829430        2.341364
 H          -4.927038      -16.594143        2.330381
