20
 generated by VMD
 C         -69.765678     -180.325424      -61.570461
 N         -69.213234     -180.914597      -62.409348
 H         -66.941887     -180.126541      -59.401478
 H         -70.197571     -179.831848      -60.664970
 C         -66.295898     -179.360962      -59.698734
 C         -65.371353     -179.526031      -60.920647
 C         -65.936501     -178.156387      -58.815296
 C         -65.264679     -178.283310      -61.778423
 C         -65.694427     -176.894043      -59.698322
 C         -64.826004     -177.190643      -60.931374
 H         -65.807793     -180.400665      -61.414398
 H         -64.361633     -179.840012      -60.518684
 H         -66.507622     -178.020172      -57.930664
 H         -64.874130     -178.258942      -58.458851
 H         -66.251671     -177.981735      -62.108128
 H         -64.576263     -178.338043      -62.655022
 H         -65.469048     -176.015213      -59.049828
 H         -66.627686     -176.558075      -60.135700
 H         -64.935455     -176.229660      -61.428585
 H         -63.868263     -177.245377      -60.473293
