20
 generated by VMD
 C         -60.327442     -170.476913      -55.155098
 N         -59.234245     -170.664444      -55.355461
 H         -63.299324     -170.657913      -56.656937
 H         -61.349689     -170.263138      -54.913792
 C         -63.278942     -169.600479      -56.806278
 C         -62.328167     -168.934082      -57.760296
 C         -64.556709     -168.819717      -56.354313
 C         -63.088371     -167.916916      -58.783295
 C         -65.094971     -167.865280      -57.389591
 C         -64.009262     -166.958511      -58.012924
 H         -61.815483     -169.564850      -58.414509
 H         -61.536102     -168.299133      -57.111378
 H         -65.344818     -169.497772      -56.009525
 H         -64.261917     -168.250534      -55.479565
 H         -63.642426     -168.537766      -59.540646
 H         -62.255985     -167.546448      -59.340275
 H         -65.902000     -167.241501      -56.919498
 H         -65.631836     -168.473572      -58.131794
 H         -64.490105     -166.335831      -58.840141
 H         -63.553085     -166.384247      -57.211094
