20
 generated by VMD
 C         -19.453972      -60.527500      -17.856514
 N         -19.916784      -59.436291      -17.898216
 H         -22.854748      -59.838558      -15.882437
 H         -18.787601      -61.374176      -18.065178
 C         -23.187250      -60.869843      -16.062984
 C         -23.436867      -61.568645      -17.395847
 C         -23.329926      -61.697483      -14.772351
 C         -22.640781      -62.941837      -17.331057
 C         -23.145906      -63.187580      -14.811312
 C         -23.064976      -63.867203      -16.159063
 H         -22.982819      -60.976620      -18.161612
 H         -24.450033      -61.851330      -17.423136
 H         -22.832052      -61.311863      -13.930438
 H         -24.384144      -61.428898      -14.569647
 H         -21.492830      -62.783436      -17.391531
 H         -23.015623      -63.483681      -18.222544
 H         -23.938110      -63.613094      -14.200443
 H         -22.336065      -63.593094      -14.194387
 H         -22.379560      -64.669937      -16.101875
 H         -24.072409      -64.262352      -16.261330
