20
 generated by VMD
 C         -19.753918      -63.976925      -16.434528
 N         -20.024969      -63.122311      -17.165337
 H         -23.596586      -63.226753      -17.252058
 H         -19.568233      -64.859673      -15.950668
 C         -24.070349      -64.166176      -17.592634
 C         -24.432344      -64.162544      -18.983068
 C         -24.396803      -65.227570      -16.589294
 C         -24.666071      -65.720879      -19.393196
 C         -24.769773      -66.605026      -17.130989
 C         -25.557898      -66.541267      -18.445276
 H         -23.575001      -63.916222      -19.716482
 H         -25.409285      -63.617355      -19.048645
 H         -23.456074      -65.438774      -15.894132
 H         -25.108118      -64.822639      -15.835613
 H         -23.703592      -66.284454      -19.436363
 H         -25.187099      -65.819588      -20.325480
 H         -25.323473      -67.135468      -16.313946
 H         -23.875435      -67.162903      -17.395279
 H         -26.031000      -67.559204      -18.776480
 H         -26.441263      -65.901512      -18.336075
