20
 generated by VMD
 C         -59.758129     -157.245789      -56.953133
 N         -60.875603     -156.881683      -56.927090
 H         -59.909901     -157.074371      -53.129440
 H         -58.683601     -157.492462      -57.004147
 C         -59.267658     -157.767548      -52.450481
 C         -57.886490     -157.264999      -51.979233
 C         -59.283581     -159.298386      -52.469643
 C         -57.322254     -157.946243      -50.774078
 C         -58.610802     -160.074768      -51.310715
 C         -57.247768     -159.454147      -51.026867
 H         -57.978901     -156.299240      -51.660065
 H         -57.111374     -157.308975      -52.712044
 H         -60.305443     -159.673553      -52.656239
 H         -58.781399     -159.471527      -53.420311
 H         -57.926704     -157.706345      -49.954418
 H         -56.280338     -157.657166      -50.689064
 H         -58.513680     -161.133408      -51.455116
 H         -59.178490     -159.920792      -50.430973
 H         -56.925430     -159.913559      -50.045547
 H         -56.542439     -159.803391      -51.717155
