20
 generated by VMD
 C         -31.246017      -75.726120      -21.623501
 N         -32.229382      -75.236404      -21.228090
 H         -27.845068      -75.223251      -20.115759
 H         -30.344297      -76.191597      -21.680258
 C         -26.824982      -75.116837      -20.539867
 C         -26.417109      -76.324203      -21.314486
 C         -25.806559      -73.998199      -20.328281
 C         -25.981598      -75.827316      -22.717478
 C         -25.330965      -73.555244      -21.818071
 C         -24.899052      -74.753044      -22.641027
 H         -27.324303      -76.853088      -21.428524
 H         -25.592272      -76.892929      -20.914341
 H         -26.475054      -73.181595      -19.829006
 H         -24.943497      -74.289917      -19.629322
 H         -26.947557      -75.519493      -23.215540
 H         -25.601454      -76.706505      -23.277828
 H         -24.556787      -72.794144      -21.601877
 H         -26.109447      -72.990013      -22.368450
 H         -24.536596      -74.310287      -23.587189
 H         -23.945265      -75.227890      -22.320312
