20
 generated by VMD
 C         -58.636635     -158.923309      -58.130596
 N         -58.866222     -159.608704      -57.277882
 H         -58.980030     -160.672226      -54.648270
 H         -58.361115     -158.263290      -58.926727
 C         -59.466263     -161.257828      -53.927002
 C         -58.687645     -161.412674      -52.672768
 C         -60.750671     -161.993515      -54.260220
 C         -59.607948     -161.530731      -51.484432
 C         -61.613678     -161.768494      -53.023579
 C         -60.887634     -162.157776      -51.746799
 H         -57.956547     -160.598541      -52.543930
 H         -58.159828     -162.375000      -52.655342
 H         -61.143669     -161.446945      -55.154884
 H         -60.641438     -162.998993      -54.430138
 H         -59.800354     -160.655243      -50.750492
 H         -59.130310     -162.055481      -50.686420
 H         -62.462215     -162.467789      -53.108643
 H         -61.953228     -160.725662      -52.933441
 H         -61.601700     -162.244141      -50.898418
 H         -60.784969     -163.221329      -51.816055
