20
 generated by VMD
 C         -79.588287     -206.905487      -74.528374
 N         -80.292931     -206.036469      -74.381294
 H         -77.894051     -206.967667      -72.375206
 H         -78.758499     -207.670502      -74.562325
 C         -77.289116     -207.070145      -71.417969
 C         -76.073845     -206.282867      -71.523628
 C         -77.379425     -208.282166      -70.539825
 C         -75.455292     -206.036926      -70.195869
 C         -76.565506     -208.146942      -69.184692
 C         -75.163528     -207.366669      -69.419388
 H         -76.365067     -205.448807      -72.081741
 H         -75.339317     -206.731598      -72.197639
 H         -78.456146     -208.585678      -70.461395
 H         -76.879570     -209.120102      -71.111900
 H         -75.941437     -205.220230      -69.624046
 H         -74.438629     -205.722885      -70.416901
 H         -76.232758     -209.139984      -68.996140
 H         -77.231316     -207.796600      -68.304977
 H         -74.659348     -207.365280      -68.408951
 H         -74.540047     -207.940414      -70.054001
