20
 generated by VMD
 C         -43.230606     -121.209694      -35.710102
 N         -43.360966     -120.494995      -34.824932
 H         -44.660583     -122.066147      -39.028332
 H         -43.254471     -121.770813      -36.683819
 C         -44.609238     -121.055534      -39.180557
 C         -43.306503     -120.437378      -39.795704
 C         -45.757862     -120.254662      -38.701298
 C         -43.563416     -119.078003      -40.442268
 C         -45.830143     -118.900246      -39.471413
 C         -44.472946     -118.311478      -39.561707
 H         -42.769554     -121.022018      -40.467281
 H         -42.514599     -120.412949      -39.017761
 H         -46.618893     -120.827499      -38.982857
 H         -45.798985     -119.997345      -37.648617
 H         -44.041218     -119.316216      -41.446007
 H         -42.602299     -118.577133      -40.629776
 H         -46.403152     -118.207367      -38.782658
 H         -46.488102     -119.036148      -40.490112
 H         -44.459068     -117.297661      -39.998413
 H         -43.923069     -118.090096      -38.587894
