20
 generated by VMD
 C         -79.509674     -205.258194      -70.993690
 N         -80.663483     -205.520889      -70.975014
 H         -77.019142     -202.790482      -69.269257
 H         -78.424324     -205.092758      -70.792969
 C         -75.944252     -202.941422      -69.453148
 C         -75.362709     -202.135345      -70.641998
 C         -75.181595     -204.162201      -69.063423
 C         -73.969055     -201.683929      -70.114510
 C         -73.659454     -204.138489      -69.206757
 C         -73.226295     -203.073502      -70.257301
 H         -76.052216     -201.274948      -70.744789
 H         -75.396729     -202.762085      -71.519905
 H         -75.464615     -204.477234      -68.023178
 H         -75.484291     -204.986343      -69.804924
 H         -73.891006     -201.234863      -69.110886
 H         -73.455856     -201.000092      -70.814011
 H         -73.305359     -205.084763      -69.531830
 H         -73.370750     -203.979126      -68.102554
 H         -72.073349     -202.810745      -70.066628
 H         -73.339409     -203.581238      -71.269997
