20
 generated by VMD
 C         -50.469589     -145.095123      -45.202755
 N         -50.323376     -145.328217      -44.036114
 H         -53.245079     -143.217102      -45.843285
 H         -50.483597     -144.785507      -46.284313
 C         -53.482731     -143.088959      -46.886570
 C         -52.514790     -143.284470      -48.162910
 C         -54.767101     -142.315170      -47.027344
 C         -53.362957     -143.238327      -49.392323
 C         -55.433147     -142.495544      -48.313675
 C         -54.481983     -142.281464      -49.411350
 H         -52.069992     -144.235794      -48.036835
 H         -51.770042     -142.408585      -48.173473
 H         -55.431538     -142.566437      -46.140022
 H         -54.628902     -141.211884      -46.689186
 H         -53.713776     -144.300552      -49.551617
 H         -52.761635     -143.037857      -50.277641
 H         -56.176434     -141.740707      -48.289772
 H         -55.795013     -143.539062      -48.461418
 H         -55.062092     -142.388245      -50.374508
 H         -53.924683     -141.326263      -49.357483
