20
 generated by VMD
 C         -69.542580     -180.073013      -61.870342
 N         -69.410957     -181.098724      -62.407509
 H         -66.803604     -180.405670      -59.152939
 H         -69.550240     -179.147232      -61.287132
 C         -66.178841     -179.595047      -59.648670
 C         -65.321091     -179.727585      -60.879581
 C         -66.078194     -178.273849      -58.880947
 C         -65.376884     -178.508728      -61.677269
 C         -65.806206     -176.975266      -59.731689
 C         -64.922974     -177.209930      -61.011322
 H         -65.803986     -180.598206      -61.397396
 H         -64.221748     -179.897278      -60.558987
 H         -67.100143     -178.220230      -58.416809
 H         -65.382378     -178.230225      -58.029716
 H         -66.394424     -178.320251      -62.219543
 H         -64.780716     -178.604507      -62.662319
 H         -65.230682     -176.402252      -59.029644
 H         -66.680260     -176.383224      -59.998001
 H         -65.146301     -176.407562      -61.674011
 H         -63.896671     -177.262726      -60.600708
