20
 generated by VMD
 C         -79.566536     -206.903900      -74.553185
 N         -80.297012     -206.031830      -74.364723
 H         -77.860764     -206.958862      -72.286240
 H         -78.825996     -207.696152      -74.589920
 C         -77.291893     -207.062698      -71.396957
 C         -76.087547     -206.274734      -71.538834
 C         -77.371437     -208.278351      -70.515228
 C         -75.448730     -206.047119      -70.192787
 C         -76.567482     -208.143585      -69.185860
 C         -75.173073     -207.361313      -69.422829
 H         -76.443954     -205.451889      -72.099075
 H         -75.269516     -206.703903      -72.122154
 H         -78.454140     -208.541321      -70.438889
 H         -76.892937     -209.027191      -71.114944
 H         -75.890640     -205.206528      -69.583565
 H         -74.435913     -205.635849      -70.478516
 H         -76.204308     -209.156021      -69.012917
 H         -77.202797     -207.819321      -68.319504
 H         -74.603035     -207.357147      -68.498886
 H         -74.485077     -207.899353      -70.120399
