20
 generated by VMD
 C          -5.762394      -21.275070        1.805905
 N          -6.378907      -22.089575        1.346306
 H          -5.034800      -19.032785       -1.016468
 H          -6.160791      -19.940798        0.045091
 C          -5.907857      -19.664713       -0.989075
 C          -5.553094      -20.898373       -1.770369
 C          -7.198965      -19.002810       -1.376541
 C          -6.763176      -21.770428       -2.128120
 C          -8.338635      -19.875326       -1.754714
 C          -7.923266      -20.970634       -2.692498
 H          -4.728391      -21.561270       -1.304750
 H          -5.038301      -20.522663       -2.637450
 H          -7.493343      -18.297279       -0.516363
 H          -7.029317      -18.336611       -2.267058
 H          -7.045608      -22.287313       -1.178566
 H          -6.438673      -22.506929       -2.884362
 H          -9.077584      -19.235935       -2.252470
 H          -8.770700      -20.372128       -0.866830
 H          -8.800152      -21.631485       -2.909774
 H          -7.662737      -20.536522       -3.703046
