20
 generated by VMD
 C         -29.422775      -74.113297      -20.331287
 N         -30.209703      -74.964813      -20.260710
 H         -26.540028      -74.104935      -18.954075
 H         -28.579782      -73.550835      -20.638062
 C         -26.291531      -73.994385      -20.013397
 C         -25.893366      -75.141861      -20.831327
 C         -25.865513      -72.628769      -20.375639
 C         -26.005400      -74.857964      -22.283396
 C         -26.087561      -72.360306      -21.889400
 C         -25.474464      -73.546509      -22.770552
 H         -26.456604      -76.045441      -20.574724
 H         -24.751101      -75.288422      -20.550968
 H         -26.546621      -71.865852      -19.756910
 H         -24.784685      -72.524384      -20.097391
 H         -27.058348      -74.851654      -22.601051
 H         -25.555574      -75.702522      -22.838806
 H         -25.751698      -71.446182      -22.353769
 H         -27.166899      -72.487556      -22.004387
 H         -25.910599      -73.525642      -23.816236
 H         -24.418055      -73.430626      -22.677929
