20
 generated by VMD
 C         -20.358494      -57.272842      -16.717419
 N         -19.511929      -56.459846      -16.700533
 H         -22.800259      -60.009312      -17.830706
 H         -20.894781      -58.088100      -16.551252
 C         -22.539629      -60.555489      -16.936592
 C         -23.588547      -60.695614      -15.921258
 C         -21.237495      -61.234009      -16.773447
 C         -22.905725      -60.685131      -14.431031
 C         -21.051395      -62.053646      -15.499770
 C         -22.048073      -61.938915      -14.341740
 H         -24.169586      -61.645683      -16.156092
 H         -24.337019      -59.915543      -15.999166
 H         -21.018106      -61.824402      -17.695402
 H         -20.533628      -60.414108      -16.779808
 H         -23.750023      -60.760311      -13.720898
 H         -22.257839      -59.799355      -14.293329
 H         -19.940313      -62.067360      -15.292772
 H         -21.095007      -63.155689      -15.747876
 H         -22.751911      -62.757042      -14.553535
 H         -21.594402      -62.084858      -13.393566
