20
 generated by VMD
 C         -68.224594     -195.253113      -64.937477
 N         -68.797386     -196.219421      -64.573196
 H         -71.307510     -194.576599      -67.045929
 H         -67.743584     -194.395676      -65.361389
 C         -72.172401     -193.922714      -66.923309
 C         -72.060768     -192.422623      -66.844902
 C         -73.388733     -194.325256      -67.802254
 C         -73.295425     -191.977951      -66.056999
 C         -74.626358     -193.887558      -66.998833
 C         -74.624954     -192.393341      -66.712440
 H         -72.067436     -192.064407      -67.956108
 H         -71.186455     -192.181381      -66.338867
 H         -73.434059     -193.830551      -68.839249
 H         -73.333611     -195.414536      -67.914902
 H         -73.329964     -190.888657      -66.033302
 H         -73.077637     -192.394913      -65.043518
 H         -74.615021     -194.372696      -66.004997
 H         -75.522804     -194.173889      -67.503731
 H         -74.813522     -191.919693      -67.645096
 H         -75.449379     -192.158981      -65.919502
