20
 generated by VMD
 C         -41.095097     -119.274597      -34.749619
 N         -40.141071     -119.159935      -35.419125
 H         -43.392654     -117.289986      -36.330849
 H         -41.930470     -119.700493      -34.099930
 C         -43.930401     -117.490265      -37.308887
 C         -42.988194     -117.807373      -38.421318
 C         -45.296097     -116.883530      -37.600319
 C         -43.666348     -118.456604      -39.637657
 C         -46.023571     -117.486992      -38.782852
 C         -45.009785     -117.756355      -39.933231
 H         -42.136177     -118.353432      -38.035286
 H         -42.747982     -116.864128      -38.862633
 H         -45.979897     -117.049767      -36.723373
 H         -45.152340     -115.782219      -37.787560
 H         -44.001625     -119.463745      -39.533375
 H         -42.932232     -118.351013      -40.479759
 H         -46.605515     -116.594826      -39.150028
 H         -46.571884     -118.387360      -38.634441
 H         -45.541580     -118.265411      -40.797649
 H         -44.696404     -116.702751      -40.261524
