20
 generated by VMD
 C         -10.385035      -33.125229       -8.970119
 N         -11.221650      -33.766186       -9.370844
 H         -13.041848      -33.849243       -6.305677
 H         -13.110217      -34.704777       -4.647560
 C         -13.027664      -34.838058       -5.694744
 C         -11.662508      -35.450253       -5.909951
 C         -14.174838      -35.736584       -6.075777
 C         -11.615870      -36.995724       -5.522249
 C         -14.116074      -37.244267       -5.779490
 C         -12.762862      -37.755619       -6.190382
 H         -10.823043      -34.930260       -5.541877
 H         -11.564835      -35.514526       -6.989918
 H         -15.135554      -35.365219       -5.688811
 H         -14.278481      -35.624565       -7.175493
 H         -11.656478      -37.080811       -4.439030
 H         -10.670282      -37.386204       -5.946336
 H         -14.921919      -37.805584       -6.350492
 H         -14.263876      -37.456085       -4.778224
 H         -12.736528      -38.808140       -5.963203
 H         -12.609165      -37.738110       -7.305973
