20
 generated by VMD
 C          -2.533374      -16.670017        2.751638
 N          -1.791221      -17.205971        2.108170
 H          -4.934488      -16.046743        0.444688
 H          -4.394934      -17.221556       -0.676150
 C          -5.279268      -16.895798       -0.093665
 C          -6.335347      -16.300409       -1.034111
 C          -5.901452      -17.944166        0.850441
 C          -7.256750      -17.242067       -1.770167
 C          -6.799590      -18.975624        0.117482
 C          -7.851036      -18.240440       -0.756903
 H          -5.768074      -15.730922       -1.825672
 H          -6.844115      -15.574190       -0.444110
 H          -5.030757      -18.457014        1.309662
 H          -6.507511      -17.359373        1.706733
 H          -6.757912      -17.795366       -2.560298
 H          -7.970809      -16.696873       -2.302534
 H          -7.254837      -19.657303        0.892923
 H          -6.164598      -19.611256       -0.524966
 H          -8.520836      -18.913048       -1.290728
 H          -8.541103      -17.692829       -0.050105
