20
 generated by VMD
 C         -40.381165     -104.538185      -36.138165
 N         -39.488159     -104.843628      -36.838097
 H         -40.749550     -107.408325      -34.750019
 H         -41.201698     -104.155991      -35.491112
 C         -39.990200     -107.796417      -34.087200
 C         -38.868496     -106.983055      -33.575729
 C         -39.898300     -109.200333      -33.608707
 C         -38.566776     -107.004860      -32.113674
 C         -39.944519     -109.152763      -32.015068
 C         -38.734261     -108.433762      -31.479458
 H         -39.081436     -105.959618      -33.792458
 H         -37.947102     -107.074532      -34.209118
 H         -40.669693     -109.932472      -33.820522
 H         -38.900524     -109.619270      -33.964622
 H         -39.273064     -106.360771      -31.623955
 H         -37.566219     -106.676529      -31.941545
 H         -39.977821     -110.243011      -31.602488
 H         -40.790943     -108.654854      -31.511208
 H         -38.833214     -108.275261      -30.455412
 H         -37.773087     -109.123840      -31.549627
