20
 generated by VMD
 C         -10.279679      -33.130299       -9.429473
 N         -11.077402      -32.517399       -8.968394
 H         -11.959025      -36.453060       -8.039052
 H         -12.336165      -35.795361       -6.414754
 C         -12.496991      -36.706360       -7.085929
 C         -11.916996      -37.990303       -6.471335
 C         -13.953301      -36.931416       -7.441566
 C         -12.674579      -38.353825       -5.160826
 C         -14.719157      -37.193348       -6.133598
 C         -14.195955      -38.364120       -5.319346
 H         -10.885524      -37.719585       -6.216487
 H         -11.902501      -38.805916       -7.168770
 H         -14.378434      -36.028030       -7.848871
 H         -14.121708      -37.820198       -8.101662
 H         -12.369467      -37.664886       -4.388829
 H         -12.347443      -39.302742       -4.795887
 H         -15.718470      -37.416283       -6.426775
 H         -14.743803      -36.183807       -5.568680
 H         -14.644613      -38.317417       -4.271623
 H         -14.554178      -39.318138       -5.742279
