20
 generated by VMD
 C         -12.234766      -30.833679       -8.460320
 N         -11.949004      -30.624907       -7.380805
 H         -11.594683      -34.695869       -7.830897
 H         -12.792741      -34.108616       -6.689112
 C         -11.848375      -34.687946       -6.798365
 C         -10.826129      -33.835800       -6.122747
 C         -12.132854      -35.997238       -6.104847
 C         -11.149010      -33.622467       -4.676016
 C         -12.382229      -35.773537       -4.617453
 C         -11.285357      -34.930122       -3.932061
 H         -10.723751      -32.850349       -6.598121
 H          -9.875779      -34.394333       -6.131094
 H         -13.048564      -36.456825       -6.546711
 H         -11.286793      -36.669132       -6.261264
 H         -12.090666      -33.090160       -4.750413
 H         -10.365753      -32.996006       -4.215568
 H         -12.593729      -36.747402       -4.074554
 H         -13.286332      -35.238747       -4.619683
 H         -11.551733      -34.657276       -2.851559
 H         -10.355589      -35.493458       -3.889789
