20
 generated by VMD
 C         -48.333271     -135.505676      -46.161518
 N         -47.326942     -135.202209      -46.646763
 H         -51.436195     -134.720352      -45.686939
 H         -49.224186     -135.759705      -45.640865
 C         -51.530071     -135.649597      -45.011631
 C         -52.138565     -136.903275      -45.459576
 C         -51.297001     -135.448776      -43.480362
 C         -51.405163     -138.145172      -44.927910
 C         -50.551426     -136.693497      -42.912319
 C         -51.330212     -137.964096      -43.328102
 H         -51.960217     -136.932266      -46.607170
 H         -53.185436     -136.935501      -45.318039
 H         -50.774269     -134.479111      -43.294441
 H         -52.339546     -135.265182      -43.200699
 H         -50.423706     -138.278000      -45.274513
 H         -51.997952     -139.033356      -45.124199
 H         -50.481518     -136.615234      -41.822414
 H         -49.627544     -136.769318      -43.385193
 H         -50.770603     -138.888062      -42.897846
 H         -52.339973     -137.934006      -42.897469
