20
 generated by VMD
 C         -79.017838     -206.704971      -75.422318
 N         -79.553963     -207.096512      -76.332985
 H         -78.541115     -209.887009      -73.069572
 H         -78.462791     -206.537354      -74.453865
 C         -77.913834     -209.825317      -72.228897
 C         -76.773071     -208.883102      -71.972672
 C         -78.238190     -210.905838      -71.235985
 C         -76.685982     -208.321838      -70.624863
 C         -78.330185     -210.218323      -69.804977
 C         -76.882240     -209.456161      -69.504219
 H         -76.850220     -208.050125      -72.676224
 H         -75.831627     -209.355972      -72.166397
 H         -79.163429     -211.392456      -71.613480
 H         -77.497192     -211.743713      -71.169121
 H         -77.522697     -207.671890      -70.388603
 H         -75.743584     -207.806229      -70.501152
 H         -78.539703     -211.017029      -69.080055
 H         -79.174812     -209.496292      -69.771782
 H         -77.155586     -208.987350      -68.553024
 H         -75.993057     -210.134384      -69.340302
