20
 generated by VMD
 C         -12.804786      -27.064903       -2.461007
 N         -12.134457      -27.675035       -1.793498
 H         -10.448942      -26.320385       -4.458277
 H          -9.006168      -26.090328       -5.384475
 C          -9.363571      -26.494324       -4.444582
 C          -9.055703      -28.021578       -4.436827
 C          -8.755184      -25.822836       -3.234993
 C          -7.520078      -28.149107       -4.410999
 C          -7.261102      -25.982557       -3.243565
 C          -6.951035      -27.444687       -3.138070
 H          -9.419041      -28.708118       -5.289832
 H          -9.579352      -28.495260       -3.638155
 H          -9.043549      -24.757454       -3.285865
 H          -9.169857      -26.165981       -2.293328
 H          -7.054533      -27.818361       -5.396979
 H          -7.194739      -29.252525       -4.365457
 H          -6.972891      -25.422575       -2.353599
 H          -6.793422      -25.399023       -4.053070
 H          -5.852363      -27.533077       -3.144441
 H          -7.311724      -27.962248       -2.283502
