20
 generated by VMD
 C         -19.441116      -60.466331      -17.872688
 N         -19.887012      -59.370808      -17.910727
 H         -23.005293      -59.856655      -16.168663
 H         -19.228725      -61.445381      -17.917442
 C         -23.123697      -60.969662      -16.026718
 C         -23.367432      -61.588440      -17.308762
 C         -23.380388      -61.619713      -14.746087
 C         -22.753635      -62.932804      -17.342720
 C         -23.132641      -63.146507      -14.785872
 C         -23.008341      -63.836857      -16.151476
 H         -23.026825      -60.994091      -18.136227
 H         -24.379448      -61.480610      -17.617014
 H         -22.618105      -61.205814      -14.188543
 H         -24.298126      -61.446686      -14.199369
 H         -21.612602      -62.776932      -17.409800
 H         -22.975731      -63.451904      -18.285984
 H         -23.912296      -63.671871      -14.254669
 H         -22.167435      -63.190693      -14.290889
 H         -22.349972      -64.691368      -16.103092
 H         -23.943707      -64.306473      -16.458492
