20
 generated by VMD
 C         -12.961299      -28.794418       -6.121319
 N         -13.103460      -28.744949       -7.229581
 H         -12.093449      -31.048021       -5.029709
 H         -10.777851      -29.768221       -4.896057
 C         -11.054557      -30.881382       -4.760071
 C         -10.137652      -31.669622       -5.618633
 C         -10.840622      -31.099806       -3.264399
 C          -8.685763      -31.483536       -5.130194
 C          -9.435418      -31.167578       -2.809310
 C          -8.584542      -32.002663       -3.699802
 H         -10.301385      -31.388962       -6.707310
 H         -10.202060      -32.748314       -5.558015
 H         -11.358633      -30.311611       -2.718927
 H         -11.310477      -32.081768       -3.001076
 H          -8.474894      -30.381157       -5.126842
 H          -7.964517      -31.961117       -5.860893
 H          -9.349001      -31.508862       -1.741163
 H          -9.093476      -30.160780       -2.823621
 H          -7.584866      -31.813831       -3.312232
 H          -8.911096      -33.069965       -3.658918
