20
 generated by VMD
 C         -76.871201     -203.361176      -66.763924
 N         -77.623451     -203.958496      -66.079597
 H         -75.386337     -200.654785      -68.220871
 H         -76.074730     -202.765457      -67.136147
 C         -74.720146     -200.077042      -68.822266
 C         -74.785988     -198.573410      -68.713562
 C         -73.811317     -200.634796      -69.838921
 C         -73.512573     -197.732132      -68.937889
 C         -73.015869     -199.600464      -70.734451
 C         -72.831459     -198.155441      -70.361916
 H         -75.243431     -198.356720      -67.806831
 H         -75.504601     -198.226883      -69.463638
 H         -73.010246     -201.232513      -69.387550
 H         -74.498360     -201.193222      -70.530563
 H         -72.854263     -198.005630      -68.096199
 H         -73.689308     -196.684082      -68.985397
 H         -73.364685     -199.673645      -71.731552
 H         -72.093544     -200.063828      -70.906166
 H         -71.782585     -197.921646      -70.347130
 H         -73.358948     -197.437912      -71.118835
