20
 generated by VMD
 C         -60.276161     -156.093353      -56.191494
 N         -60.685173     -155.138824      -55.667400
 H         -59.833282     -158.007233      -52.766369
 H         -59.850174     -157.052109      -56.546955
 C         -58.990269     -157.805161      -52.085098
 C         -58.270542     -156.527130      -52.249069
 C         -58.144753     -159.010178      -51.657848
 C         -57.199661     -156.297852      -51.119305
 C         -57.061520     -158.727905      -50.564098
 C         -56.270252     -157.387756      -50.912964
 H         -58.921989     -155.649887      -52.276321
 H         -57.805511     -156.387375      -53.157463
 H         -58.810749     -159.881836      -51.246090
 H         -57.619839     -159.421280      -52.546516
 H         -57.784912     -156.029205      -50.264191
 H         -56.556801     -155.438416      -51.238167
 H         -56.215595     -159.456711      -50.388889
 H         -57.595264     -158.609604      -49.561768
 H         -55.420982     -157.194351      -50.195087
 H         -55.628231     -157.530457      -51.823746
