20
 generated by VMD
 C         -49.833954     -127.500740      -39.434486
 N         -49.001881     -126.705574      -39.343979
 H         -47.121483     -126.421822      -41.302345
 H         -50.709373     -128.139633      -39.437992
 C         -46.371956     -125.712181      -41.207371
 C         -45.129917     -126.255234      -40.371666
 C         -46.711548     -124.236122      -41.176018
 C         -43.927216     -125.279396      -40.650009
 C         -45.467785     -123.424217      -41.411469
 C         -44.238770     -123.814804      -40.600864
 H         -44.681744     -127.295197      -40.658745
 H         -45.374733     -126.283607      -39.313625
 H         -47.349094     -123.862091      -41.963169
 H         -47.429665     -123.940430      -40.372276
 H         -43.624439     -125.562187      -41.661037
 H         -43.103363     -125.530411      -39.967941
 H         -45.722317     -122.314674      -41.222858
 H         -45.155113     -123.330467      -42.459702
 H         -43.415367     -123.250504      -40.992764
 H         -44.406693     -123.568382      -39.509003
