20
 generated by VMD
 C         -58.241123     -168.394318      -54.981800
 N         -57.057178     -168.597275      -54.921894
 H         -61.505402     -167.667389      -55.524517
 H         -59.320496     -168.298752      -55.163139
 C         -62.334175     -167.207642      -56.127659
 C         -62.645737     -167.684250      -57.483822
 C         -62.970665     -165.988968      -55.635845
 C         -64.166023     -167.493622      -57.797386
 C         -64.454597     -165.882233      -56.000553
 C         -64.727852     -166.143188      -57.459373
 H         -62.300758     -168.639099      -57.499962
 H         -61.924568     -167.102692      -58.285709
 H         -62.977802     -166.015091      -54.589928
 H         -62.473129     -165.088257      -56.070919
 H         -64.733795     -168.339737      -57.419476
 H         -64.184731     -167.598251      -58.856297
 H         -64.794296     -164.809158      -55.851173
 H         -65.153084     -166.552567      -55.353611
 H         -65.854561     -166.082703      -57.683933
 H         -64.245354     -165.243942      -57.935146
