20
 generated by VMD
 C         -59.391506     -168.784790      -55.859596
 N         -59.232185     -168.708038      -54.672695
 H         -62.524784     -169.739883      -56.043983
 H         -59.534721     -168.704254      -56.937252
 C         -62.932564     -168.883743      -56.486088
 C         -62.763187     -168.636871      -57.864742
 C         -63.167877     -167.760025      -55.554760
 C         -63.689003     -167.619080      -58.476089
 C         -64.031425     -166.580887      -56.101383
 C         -63.823532     -166.346252      -57.615276
 H         -62.795776     -169.648972      -58.398548
 H         -61.739887     -168.284332      -57.876400
 H         -63.419933     -167.994339      -54.597336
 H         -62.209747     -167.242111      -55.466217
 H         -64.730965     -168.026886      -58.573544
 H         -63.360428     -167.558365      -59.535614
 H         -63.814548     -165.726868      -55.431335
 H         -65.045685     -166.950104      -56.011784
 H         -64.626488     -165.689804      -58.057877
 H         -62.903740     -165.820984      -57.836975
