20
 generated by VMD
 C         -68.609482     -188.467941      -67.295105
 N         -68.310867     -187.488190      -67.826019
 H         -68.273727     -186.964386      -63.854908
 H         -68.879425     -189.283768      -66.642136
 C         -69.212532     -187.418625      -63.538769
 C         -69.216377     -188.439484      -62.452450
 C         -70.402443     -186.647461      -63.562332
 C         -70.544861     -189.315216      -62.530109
 C         -71.605446     -187.513870      -63.846817
 C         -71.832176     -188.533371      -62.659687
 H         -69.048981     -187.784500      -61.535782
 H         -68.391541     -189.232559      -62.457764
 H         -70.484047     -186.049515      -62.656563
 H         -70.346451     -186.029861      -64.395416
 H         -70.610268     -190.017593      -61.723488
 H         -70.420616     -189.974228      -63.464291
 H         -71.461548     -187.951157      -64.878700
 H         -72.506561     -186.894669      -63.989735
 H         -72.177132     -187.963150      -61.865978
 H         -72.812958     -189.138550      -62.692493
