20
 generated by VMD
 C         -41.995079     -101.535187      -33.023441
 N         -41.221466     -101.623627      -33.896339
 H         -38.765045     -103.238617      -32.752769
 H         -42.756573     -101.089912      -32.327984
 C         -37.881165     -103.459061      -32.149719
 C         -36.549519     -103.437721      -33.112225
 C         -37.684986     -103.708763      -30.689592
 C         -35.641163     -102.515121      -32.366108
 C         -36.405552     -103.145988      -30.016287
 C         -35.253349     -103.137558      -31.015196
 H         -36.861645     -103.166916      -34.092209
 H         -36.182262     -104.472359      -33.223190
 H         -38.679413     -103.471611      -30.236950
 H         -37.749714     -104.820747      -30.713652
 H         -36.110764     -101.544975      -32.272930
 H         -34.723770     -102.312454      -32.969322
 H         -36.034817     -103.670181      -29.062414
 H         -36.621601     -102.104736      -29.770105
 H         -34.419724     -102.444191      -30.698116
 H         -34.793209     -104.089348      -31.090412
