20
 generated by VMD
 C         -38.309643     -109.664612      -36.450459
 N         -37.647926     -109.000183      -35.800030
 H         -41.880516     -111.009567      -37.257713
 H         -38.762459     -110.320908      -37.115005
 C         -41.887486     -111.442368      -36.259766
 C         -42.063553     -112.994545      -36.277126
 C         -41.939041     -110.598206      -35.034843
 C         -41.823650     -113.581085      -34.840302
 C         -42.062710     -111.352203      -33.764194
 C         -42.524967     -112.724503      -33.881847
 H         -41.318920     -113.439766      -36.931267
 H         -43.149139     -113.106773      -36.612926
 H         -41.067318     -109.924805      -35.189884
 H         -42.751865     -109.863914      -35.198322
 H         -40.761395     -113.693390      -34.610165
 H         -42.232834     -114.577820      -34.722267
 H         -42.480843     -110.897034      -32.913124
 H         -41.064251     -111.476654      -33.466297
 H         -42.405910     -113.195572      -32.932629
 H         -43.674847     -112.666031      -34.025696
