20
 generated by VMD
 C         -20.797085      -64.255547      -16.698574
 N         -19.722658      -63.814301      -16.744272
 H         -23.479427      -63.423889      -17.493114
 H         -21.923820      -64.434555      -16.588036
 C         -23.792545      -64.430580      -17.800468
 C         -24.502674      -64.449799      -19.046181
 C         -24.525988      -65.215233      -16.792921
 C         -24.890574      -65.879982      -19.618397
 C         -24.596767      -66.647194      -17.269829
 C         -25.461750      -66.861023      -18.498581
 H         -23.948189      -63.894672      -19.723951
 H         -25.441498      -63.856419      -19.011646
 H         -23.920734      -65.188965      -15.826733
 H         -25.544333      -64.816010      -16.448446
 H         -24.061321      -66.467285      -19.928513
 H         -25.660925      -65.891464      -20.402523
 H         -25.072111      -67.285034      -16.530771
 H         -23.559105      -67.078499      -17.382359
 H         -25.426718      -67.889244      -18.838484
 H         -26.507370      -66.492622      -18.209064
