20
 generated by VMD
 C         -79.645111     -206.874802      -75.180321
 N         -79.899780     -207.560211      -74.298843
 H         -76.974602     -207.606247      -73.207657
 H         -79.224342     -206.396164      -76.104492
 C         -76.795769     -208.137878      -72.262810
 C         -75.604095     -207.886246      -71.395126
 C         -77.968330     -208.998917      -71.715820
 C         -76.040489     -207.515839      -69.967659
 C         -78.096199     -208.953659      -70.231880
 C         -76.799294     -208.759964      -69.416756
 H         -74.852844     -207.184967      -71.794304
 H         -75.074646     -208.841415      -71.450531
 H         -78.894356     -208.698044      -72.173630
 H         -77.792763     -210.017944      -72.120880
 H         -76.562675     -206.527893      -69.940971
 H         -75.097931     -207.284286      -69.408569
 H         -78.506241     -209.943542      -70.038719
 H         -78.792801     -208.206543      -69.763077
 H         -77.103752     -208.485657      -68.357681
 H         -76.325844     -209.699799      -69.222046
