20
 generated by VMD
 C         -55.208565     -148.618347      -45.222008
 N         -54.612602     -148.902817      -44.229717
 H         -54.433002     -148.069244      -48.585423
 H         -55.793156     -148.497498      -46.113773
 C         -54.286629     -147.175919      -49.135403
 C         -53.214794     -147.022247      -50.075809
 C         -55.012913     -145.973618      -48.614864
 C         -53.397797     -145.745895      -51.036037
 C         -55.150192     -144.798019      -49.567375
 C         -53.783367     -144.455612      -50.202232
 H         -53.009384     -147.940628      -50.549248
 H         -52.242271     -146.822098      -49.589264
 H         -55.992165     -146.245773      -48.467583
 H         -54.596088     -145.633209      -47.674374
 H         -54.190903     -145.902466      -51.759148
 H         -52.467003     -145.434128      -51.436207
 H         -55.593719     -143.919250      -49.030453
 H         -55.846176     -145.084290      -50.268814
 H         -53.876362     -143.649445      -50.969124
 H         -53.160366     -144.443405      -49.318977
