20
 generated by VMD
 C         -69.912109     -184.471115      -66.214333
 N         -69.002129     -184.235245      -66.905739
 H         -69.715790     -183.599014      -63.206886
 H         -70.839615     -184.613297      -65.577736
 C         -68.925964     -183.623199      -62.484665
 C         -69.286690     -184.728638      -61.443188
 C         -68.133453     -182.477676      -62.110279
 C         -68.115898     -184.884705      -60.513092
 C         -66.842262     -182.902069      -61.481625
 C         -67.314163     -183.659088      -60.192814
 H         -69.523491     -185.659470      -61.925575
 H         -70.266136     -184.417542      -61.048962
 H         -67.838379     -181.817093      -63.037319
 H         -68.765991     -181.842224      -61.491043
 H         -67.573364     -185.634979      -61.031239
 H         -68.476128     -185.437103      -59.649563
 H         -66.090157     -182.158676      -61.142220
 H         -66.241539     -183.480148      -62.221127
 H         -66.326065     -183.952484      -59.695816
 H         -67.821236     -182.867050      -59.492958
