20
 generated by VMD
 C         -50.916473     -130.818634      -46.336098
 N         -50.291733     -130.717316      -47.324574
 H         -48.314728     -131.807907      -44.337830
 H         -51.828838     -130.882736      -45.691593
 C         -48.309010     -132.307144      -43.353405
 C         -48.850994     -133.679214      -43.069714
 C         -48.333878     -131.401947      -42.256870
 C         -48.436699     -134.294357      -41.769913
 C         -47.863792     -131.997177      -40.945332
 C         -48.574657     -133.245316      -40.532959
 H         -48.595577     -134.319458      -43.848618
 H         -50.002525     -133.731445      -42.999023
 H         -47.671322     -130.536972      -42.563309
 H         -49.304592     -130.938919      -42.116497
 H         -47.337440     -134.502777      -41.784355
 H         -49.034149     -135.237930      -41.563313
 H         -47.915314     -131.279953      -40.063034
 H         -46.799187     -132.266464      -41.178192
 H         -48.333576     -133.629318      -39.490631
 H         -49.645027     -133.118896      -40.463020
