20
 generated by VMD
 C         -39.719528     -107.573013      -37.793125
 N         -39.057781     -106.598946      -37.841328
 H         -39.428375     -108.390076      -35.141644
 H         -40.208504     -108.483917      -37.524273
 C         -39.888847     -109.136711      -34.407879
 C         -38.997013     -110.196152      -33.631775
 C         -41.386677     -109.053429      -34.143559
 C         -39.749481     -111.021690      -32.555370
 C         -41.948780     -109.763725      -32.905846
 C         -41.210796     -111.114586      -32.787186
 H         -38.158211     -109.639580      -33.278767
 H         -38.465542     -110.785294      -34.375504
 H         -41.575825     -107.931435      -34.051018
 H         -41.930111     -109.393272      -35.077309
 H         -39.702816     -110.497566      -31.527246
 H         -39.244476     -111.997459      -32.489307
 H         -43.019951     -109.901230      -33.116451
 H         -41.813999     -109.147766      -31.993818
 H         -41.608105     -111.603752      -31.948362
 H         -41.466137     -111.836670      -33.665638
