20
 generated by VMD
 C         -30.930918      -75.788849      -22.732201
 N         -30.975300      -74.955780      -23.556828
 H         -28.700413      -78.678223      -21.320753
 H         -31.143633      -76.179344      -21.828371
 C         -27.982777      -77.949898      -21.571674
 C         -26.994726      -78.278023      -22.695612
 C         -27.469715      -77.246376      -20.412827
 C         -26.304794      -76.917229      -23.180071
 C         -26.918446      -75.817253      -20.928032
 C         -25.856680      -76.046631      -22.028461
 H         -27.487471      -78.843414      -23.570213
 H         -26.169128      -78.918968      -22.362638
 H         -28.319244      -77.098969      -19.652166
 H         -26.663740      -77.875366      -19.924875
 H         -26.902588      -76.406380      -23.921658
 H         -25.449858      -77.346817      -23.668570
 H         -26.469507      -75.289955      -20.082691
 H         -27.693047      -75.063232      -21.320259
 H         -25.497334      -75.100319      -22.414442
 H         -24.854715      -76.379723      -21.528641
