20
 generated by VMD
 C          -1.861162      -13.976850        2.303766
 N          -1.753911      -14.772758        1.522408
 H          -3.751569      -16.714125        0.731581
 H          -4.501266      -17.086622       -0.787172
 C          -4.703482      -16.926027        0.263875
 C          -5.570191      -15.657817        0.413622
 C          -5.368973      -18.142330        0.880889
 C          -6.865526      -15.861161       -0.373510
 C          -6.767092      -18.375580        0.206769
 C          -7.635633      -17.087458        0.050794
 H          -4.975977      -14.847442       -0.087658
 H          -5.811796      -15.396062        1.421702
 H          -4.773021      -18.976307        0.682131
 H          -5.488770      -17.882004        1.869050
 H          -6.474428      -16.003229       -1.421445
 H          -7.502417      -14.929441       -0.388255
 H          -7.342673      -19.166723        0.761026
 H          -6.493507      -18.815077       -0.788432
 H          -8.480962      -17.273359       -0.597605
 H          -8.070498      -16.802063        1.007687
