20
 generated by VMD
 C         -43.218449     -121.193359      -35.649033
 N         -43.253365     -120.507576      -34.712643
 H         -44.677334     -122.138077      -38.973427
 H         -43.309624     -121.924561      -36.428894
 C         -44.543137     -120.994720      -39.119732
 C         -43.293419     -120.419800      -39.786190
 C         -45.611031     -120.202690      -38.634327
 C         -43.608627     -119.022415      -40.463753
 C         -45.863392     -118.875992      -39.435398
 C         -44.560986     -118.071930      -39.724106
 H         -42.747025     -121.065521      -40.568707
 H         -42.590595     -120.303940      -38.949139
 H         -46.563251     -120.754807      -38.688667
 H         -45.474041     -119.790924      -37.628807
 H         -44.093376     -119.271645      -41.352482
 H         -42.660118     -118.447708      -40.583511
 H         -46.493481     -118.198433      -38.879440
 H         -46.261559     -119.149170      -40.332050
 H         -44.704750     -117.170700      -40.391323
 H         -44.006584     -117.696701      -38.849823
