20
 generated by VMD
 C         -54.423058     -148.173340      -45.361412
 N         -54.498215     -148.293762      -44.234402
 H         -54.348618     -148.072784      -48.738281
 H         -54.162037     -148.033157      -46.393600
 C         -54.301800     -147.019821      -49.020905
 C         -53.190624     -146.845764      -50.092678
 C         -55.152260     -145.879990      -48.437111
 C         -53.377872     -145.464172      -50.777313
 C         -55.115147     -144.553284      -49.302677
 C         -53.762817     -144.199738      -49.968765
 H         -53.104111     -147.708145      -50.782043
 H         -52.136765     -146.862534      -49.677200
 H         -56.164314     -146.112854      -48.278004
 H         -54.809254     -145.592728      -47.467846
 H         -54.257416     -145.546341      -51.467400
 H         -52.536011     -145.161789      -51.351921
 H         -55.465984     -143.661133      -48.677326
 H         -55.822609     -144.720825      -50.003822
 H         -53.847473     -143.371979      -50.672138
 H         -53.133663     -143.991058      -49.129047
