20
 generated by VMD
 C         -61.548420     -155.965363      -54.664730
 N         -60.935669     -155.351730      -53.884426
 H         -58.874722     -154.914886      -51.892815
 H         -62.181568     -156.627335      -55.200321
 C         -57.881748     -155.156723      -51.560139
 C         -57.478222     -154.514465      -50.307705
 C         -56.816238     -155.630875      -52.540852
 C         -56.222347     -155.049896      -49.695477
 C         -55.596245     -156.205338      -51.826111
 C         -55.096146     -155.253159      -50.686775
 H         -58.356335     -154.579849      -49.684181
 H         -57.338047     -153.367157      -50.421925
 H         -57.388275     -156.222672      -53.175114
 H         -56.493301     -154.773529      -53.183727
 H         -56.443966     -155.920547      -49.050228
 H         -55.890156     -154.443924      -48.923450
 H         -54.813725     -156.497467      -52.452423
 H         -55.921124     -157.189453      -51.317760
 H         -54.402390     -155.791077      -50.143806
 H         -54.724262     -154.208389      -50.938450
