20
 generated by VMD
 C         -57.915581     -164.601059      -56.583580
 N         -57.262211     -163.874222      -57.169174
 H         -60.043022     -164.474503      -53.949368
 H         -58.595058     -165.206207      -56.040413
 C         -60.902744     -164.878922      -54.526119
 C         -61.875149     -165.850220      -53.848358
 C         -61.334320     -164.299408      -55.846092
 C         -63.351044     -165.391129      -53.975071
 C         -62.874344     -163.894440      -55.945011
 C         -63.716671     -164.968597      -55.378239
 H         -61.568462     -165.929291      -52.741302
 H         -61.858189     -166.767151      -54.430744
 H         -60.738388     -163.540634      -56.229359
 H         -61.390701     -165.055771      -56.634224
 H         -63.548531     -164.745102      -53.163509
 H         -64.023567     -166.212570      -53.650402
 H         -63.139301     -163.778366      -56.949173
 H         -62.960182     -162.941559      -55.335514
 H         -64.838623     -164.574219      -55.428719
 H         -63.732944     -165.954803      -55.972607
