20
 generated by VMD
 C         -38.173901     -114.814911      -35.393147
 N         -39.066078     -115.265205      -34.781567
 H         -41.476768     -115.017868      -36.651878
 H         -37.409195     -114.600647      -36.210934
 C         -42.444431     -115.440460      -36.995602
 C         -42.911182     -115.195457      -38.400108
 C         -43.441486     -115.144783      -35.960285
 C         -44.152645     -115.977058      -38.708115
 C         -44.779213     -115.847961      -36.202507
 C         -45.247761     -115.758224      -37.690380
 H         -42.107166     -115.626411      -39.024197
 H         -43.061081     -114.157356      -38.772312
 H         -42.981377     -115.563156      -35.005844
 H         -43.540474     -114.047791      -35.720932
 H         -43.963154     -117.072258      -38.735352
 H         -44.527836     -115.646812      -39.648121
 H         -45.699886     -115.591171      -35.590240
 H         -44.621105     -116.960350      -36.039524
 H         -46.105984     -116.426758      -37.665607
 H         -45.560287     -114.662834      -37.694252
