20
 generated by VMD
 C         -48.500084     -135.843857      -46.168045
 N         -47.576820     -136.178177      -45.569939
 H         -51.800201     -135.050552      -46.001560
 H         -49.395260     -135.522156      -46.637611
 C         -51.724018     -135.956772      -45.423893
 C         -52.417000     -137.211411      -45.825397
 C         -51.132614     -135.828888      -43.958076
 C         -51.758968     -138.505402      -45.239128
 C         -50.713985     -137.099777      -43.313805
 C         -51.412827     -138.375229      -43.722595
 H         -52.256741     -137.371719      -46.947571
 H         -53.428616     -137.018814      -45.616856
 H         -50.331177     -135.100586      -43.986752
 H         -52.000439     -135.425156      -43.417667
 H         -50.870541     -139.005920      -45.749622
 H         -52.563202     -139.302414      -45.379463
 H         -50.682671     -137.051483      -42.124702
 H         -49.686928     -137.144897      -43.603703
 H         -50.956894     -139.188583      -43.284706
 H         -52.306519     -138.519272      -43.097317
