20
 generated by VMD
 C         -31.671103      -93.208641      -26.079622
 N         -32.215603      -93.958061      -25.413855
 H         -33.554462      -94.333084      -27.863037
 H         -31.269226      -92.362160      -26.751957
 C         -34.024235      -93.563629      -28.474146
 C         -35.416992      -93.236641      -28.178307
 C         -33.483608      -92.934921      -29.668091
 C         -35.645237      -91.652657      -28.142750
 C         -33.706306      -91.420341      -29.754593
 C         -35.142048      -90.965706      -29.351353
 H         -35.728298      -93.626144      -27.214983
 H         -36.043606      -93.559662      -29.055630
 H         -32.365383      -93.043694      -29.730566
 H         -33.784733      -93.417404      -30.612463
 H         -35.163033      -91.389282      -27.262636
 H         -36.698292      -91.494438      -27.830944
 H         -33.517845      -91.140862      -30.791679
 H         -33.033894      -90.818428      -29.092211
 H         -35.341896      -89.908089      -29.441183
 H         -35.799294      -91.415779      -30.066708
