20
 generated by VMD
 C         -20.215481      -57.299202      -16.765450
 N         -19.189817      -57.272606      -17.305891
 H         -22.566429      -59.579113      -17.516588
 H         -21.196596      -57.198677      -16.506109
 C         -22.476814      -60.408913      -16.700079
 C         -23.810993      -60.974640      -16.260349
 C         -21.123606      -60.905262      -16.269146
 C         -23.663061      -61.860550      -15.004833
 C         -21.230991      -62.147179      -15.439651
 C         -22.372734      -62.462902      -14.493064
 H         -24.259260      -61.570717      -17.067480
 H         -24.408176      -60.130707      -16.013758
 H         -20.614954      -61.081944      -17.254938
 H         -20.543447      -60.102055      -15.826386
 H         -24.349239      -62.749077      -15.073365
 H         -24.296474      -61.382572      -14.188460
 H         -20.350904      -62.188343      -14.719052
 H         -21.102613      -62.866100      -16.229412
 H         -22.361385      -63.596298      -14.328848
 H         -22.040119      -62.097919      -13.501914
