20
 generated by VMD
 C         -50.064106     -142.958923      -45.291912
 N         -48.924267     -143.232437      -45.368847
 H         -52.030075     -139.989624      -45.540707
 H         -51.034756     -142.555130      -45.077675
 C         -52.604328     -140.725006      -46.179623
 C         -52.093548     -141.031342      -47.533161
 C         -54.121826     -140.612228      -46.045502
 C         -52.899220     -142.097565      -48.314346
 C         -54.787903     -141.763428      -46.741928
 C         -54.395142     -141.832596      -48.192608
 H         -50.957497     -141.289917      -47.544579
 H         -52.136131     -140.056015      -48.121414
 H         -54.408276     -140.688797      -44.981441
 H         -54.593468     -139.672241      -46.484249
 H         -52.520123     -143.102142      -47.833542
 H         -52.646336     -142.160156      -49.438675
 H         -55.868370     -141.510727      -46.673809
 H         -54.655506     -142.800598      -46.360195
 H         -55.034405     -142.684204      -48.704849
 H         -54.759205     -140.900620      -48.802494
