20
 generated by VMD
 C         -36.932777      -98.283852      -27.321615
 N         -37.812515      -98.301842      -26.551710
 H         -36.680676      -96.143097      -29.386604
 H         -35.996040      -98.235909      -27.910204
 C         -35.620495      -96.455933      -29.459482
 C         -35.392807      -97.190964      -30.725063
 C         -34.460735      -95.613182      -29.105640
 C         -35.084728      -96.219536      -31.872648
 C         -34.219364      -94.561417      -30.228855
 C         -33.847721      -95.278534      -31.426468
 H         -36.249962      -97.768105      -31.021030
 H         -34.533566      -97.897552      -30.618404
 H         -34.739578      -95.356956      -28.077082
 H         -33.499180      -96.199310      -29.004900
 H         -35.903091      -95.530632      -32.096931
 H         -34.911503      -96.869995      -32.828064
 H         -33.377602      -93.901108      -29.887850
 H         -35.054020      -93.829842      -30.307144
 H         -33.524239      -94.509583      -32.327221
 H         -32.961792      -95.919243      -31.275288
