20
 generated by VMD
 C         -28.369448      -88.133095      -26.213825
 N         -28.444448      -86.952774      -26.111897
 H         -31.206915      -89.293350      -26.251421
 H         -28.514421      -89.243645      -26.235832
 C         -32.219395      -88.973511      -26.434576
 C         -33.146259      -88.822716      -25.251915
 C         -32.725136      -88.825676      -27.810778
 C         -34.174007      -87.790215      -25.391912
 C         -33.767426      -87.750366      -27.897520
 C         -34.886059      -87.959473      -26.751801
 H         -32.630970      -88.667435      -24.218096
 H         -33.591705      -89.919281      -25.058899
 H         -31.803230      -88.656090      -28.409245
 H         -32.992210      -89.817352      -28.073437
 H         -33.697891      -86.741623      -25.444786
 H         -34.933285      -87.875916      -24.503897
 H         -34.392536      -87.708389      -28.789623
 H         -33.337322      -86.769814      -27.675325
 H         -35.755383      -87.393547      -26.793686
 H         -35.249672      -88.944153      -26.919035
