20
 generated by VMD
 C         -59.827854     -152.078445      -49.853329
 N         -58.724995     -152.481247      -50.160633
 H         -56.588978     -151.032578      -48.513420
 H         -60.753643     -151.709976      -49.403439
 C         -55.773972     -150.660614      -49.059895
 C         -54.784340     -151.627518      -49.699314
 C         -55.344997     -149.143356      -49.147198
 C         -54.271671     -151.198746      -51.079960
 C         -54.846298     -148.702866      -50.644180
 C         -53.840458     -149.773407      -51.110424
 H         -55.426125     -152.542847      -49.839745
 H         -54.001301     -151.855240      -49.043697
 H         -56.057899     -148.458298      -48.721191
 H         -54.438469     -148.910553      -48.542435
 H         -54.988468     -151.351746      -51.891376
 H         -53.399853     -151.904694      -51.221169
 H         -54.237778     -147.745987      -50.590153
 H         -55.595695     -148.552429      -51.397236
 H         -53.384529     -149.508972      -52.014565
 H         -52.975388     -149.600845      -50.385715
