20
 generated by VMD
 C         -68.317558     -185.326202      -67.574860
 N         -67.622437     -185.318619      -66.634735
 H         -69.283600     -186.768951      -64.845016
 H         -68.899544     -185.473495      -68.423477
 C         -69.679482     -186.775497      -63.801800
 C         -70.343987     -185.521942      -63.283215
 C         -69.620415     -187.993958      -63.001450
 C         -70.060303     -185.260345      -61.817604
 C         -69.118210     -187.636429      -61.585640
 C         -69.940186     -186.460754      -60.922794
 H         -71.478889     -185.501877      -63.528439
 H         -69.895058     -184.739151      -63.901814
 H         -70.553749     -188.607971      -62.852150
 H         -68.870155     -188.680389      -63.420486
 H         -70.967468     -184.692734      -61.482067
 H         -69.254715     -184.593201      -61.636593
 H         -68.084801     -187.149780      -61.626282
 H         -69.129288     -188.568008      -60.928875
 H         -70.958153     -187.095566      -60.792007
 H         -69.507240     -186.161392      -59.934219
