20
 generated by VMD
 C         -50.301037     -129.539032      -43.443096
 N         -50.848240     -129.711868      -44.484890
 H         -49.160480     -127.943321      -40.856194
 H         -49.876278     -129.437241      -42.459854
 C         -48.065861     -128.092819      -41.045414
 C         -47.666588     -129.638977      -40.821892
 C         -46.938572     -127.103767      -40.698906
 C         -46.401947     -129.901154      -41.647781
 C         -45.719093     -127.538330      -41.499218
 C         -45.263390     -128.964920      -41.211029
 H         -48.542969     -130.140945      -41.113396
 H         -47.408249     -129.836273      -39.718727
 H         -47.373215     -126.041695      -40.917278
 H         -46.812851     -127.110069      -39.670986
 H         -46.673679     -129.688095      -42.708069
 H         -46.050957     -130.902649      -41.367634
 H         -44.920929     -126.743935      -41.244095
 H         -45.980816     -127.490150      -42.648502
 H         -44.311134     -129.246399      -41.755482
 H         -45.001846     -128.947906      -40.164680
