20
 generated by VMD
 C         -10.741448      -37.108376       -8.534374
 N         -10.824862      -36.381531       -7.659260
 H         -13.405740      -37.275467       -7.606467
 H         -14.323693      -38.129776       -6.371171
 C         -13.939610      -38.257797       -7.368103
 C         -13.120464      -39.493511       -7.383253
 C         -15.074808      -38.277351       -8.318057
 C         -13.894711      -40.766357       -7.239260
 C         -15.860430      -39.565655       -8.229783
 C         -15.056328      -40.831821       -8.254842
 H         -12.413338      -39.393967       -6.530019
 H         -12.569627      -39.477421       -8.336179
 H         -15.827206      -37.513943       -8.103343
 H         -14.723661      -38.179825       -9.297770
 H         -14.338527      -40.733448       -6.221680
 H         -13.263805      -41.592674       -7.452225
 H         -16.543884      -39.595505       -9.152552
 H         -16.514101      -39.576111       -7.398040
 H         -15.686204      -41.726891       -8.184205
 H         -14.580040      -40.899357       -9.208109
