20
 generated by VMD
 C         -57.415710     -162.515472      -56.226009
 N         -57.156414     -162.198212      -57.353806
 H         -59.688442     -165.094193      -55.035439
 H         -57.758213     -162.800140      -55.227699
 C         -60.592651     -164.655823      -54.820263
 C         -60.842197     -164.345535      -53.383541
 C         -61.738941     -164.624405      -55.799038
 C         -62.156975     -163.627548      -53.128757
 C         -62.804489     -163.591232      -55.424332
 C         -63.390800     -163.754684      -54.060253
 H         -60.074249     -163.770813      -52.843285
 H         -60.872639     -165.276474      -52.884789
 H         -61.366280     -164.419327      -56.775433
 H         -62.248875     -165.656342      -55.804417
 H         -61.994350     -162.517944      -53.001423
 H         -62.496010     -163.963150      -52.115337
 H         -63.543064     -163.641495      -56.183189
 H         -62.402195     -162.585175      -55.594955
 H         -64.044167     -162.988602      -53.726498
 H         -63.779938     -164.759888      -53.934650
