20
 generated by VMD
 C         -62.931625     -172.225540      -55.211407
 N         -62.495716     -173.344330      -55.146439
 H         -61.451027     -171.402802      -58.679470
 H         -63.463406     -171.297760      -55.127705
 C         -62.339119     -170.803085      -58.771996
 C         -62.314552     -169.409439      -58.032909
 C         -63.715073     -171.429947      -59.000755
 C         -63.696083     -168.645721      -57.966316
 C         -64.885963     -170.406143      -59.064270
 C         -65.047234     -169.374939      -57.936504
 H         -61.509369     -168.800446      -58.508942
 H         -62.015709     -169.647034      -57.048183
 H         -63.741947     -171.971100      -59.956421
 H         -63.935326     -172.053009      -58.168983
 H         -63.788197     -167.993118      -58.837105
 H         -63.658409     -167.910172      -57.061733
 H         -65.870926     -171.016678      -59.040333
 H         -64.818672     -169.880173      -60.087223
 H         -65.861526     -168.623886      -57.885201
 H         -65.130150     -169.924728      -57.062080
