20
 generated by VMD
 C         -50.614113     -129.392700      -43.144932
 N         -50.339161     -128.283447      -42.813808
 H         -48.580566     -128.144577      -40.650711
 H         -50.979187     -130.381439      -43.418304
 C         -47.566898     -127.772591      -40.350780
 C         -46.444675     -128.569794      -39.935448
 C         -47.127644     -126.471710      -40.948395
 C         -45.331551     -128.803192      -41.079365
 C         -46.159119     -126.594231      -42.080887
 C         -44.869083     -127.293449      -41.585072
 H         -46.708313     -129.624405      -39.706242
 H         -45.954712     -128.271378      -38.987705
 H         -48.077080     -126.065765      -41.234806
 H         -46.831890     -125.782707      -40.146969
 H         -45.882206     -129.242340      -41.945545
 H         -44.439495     -129.243607      -40.566113
 H         -45.817654     -125.664520      -42.470604
 H         -46.537212     -127.284988      -42.809845
 H         -44.134090     -127.372246      -42.391109
 H         -44.340721     -126.821220      -40.720547
