20
 generated by VMD
 C         -52.423817     -146.397507      -44.213409
 N         -51.723419     -146.538467      -45.089668
 H         -53.771297     -145.963501      -47.136215
 H         -53.121006     -146.354706      -43.398190
 C         -53.978638     -145.183929      -47.818222
 C         -52.857540     -144.930588      -48.858021
 C         -54.776348     -143.853378      -47.589737
 C         -53.457138     -144.344711      -50.102116
 C         -55.426094     -143.244690      -48.856956
 C         -54.227322     -143.038834      -49.852520
 H         -52.278393     -145.808807      -49.059273
 H         -52.072319     -144.139847      -48.508457
 H         -55.485336     -144.025848      -46.745796
 H         -53.957176     -143.202911      -47.201229
 H         -54.175297     -145.008469      -50.783077
 H         -52.598339     -144.129990      -50.771778
 H         -56.118191     -142.428772      -48.665340
 H         -55.997265     -144.146652      -49.347767
 H         -54.607853     -142.593628      -50.801022
 H         -53.586647     -142.244965      -49.442627
