20
 generated by VMD
 C         -38.664223      -99.080276      -27.085861
 N         -37.710461      -99.059509      -26.426716
 H         -36.825447      -97.586746      -29.921717
 H         -39.538033      -99.254776      -27.711025
 C         -36.088207      -96.924812      -30.434084
 C         -35.421501      -97.576965      -31.628685
 C         -35.309677      -95.924126      -29.465467
 C         -34.510532      -96.523781      -32.248257
 C         -34.026550      -95.347115      -30.059097
 C         -33.460594      -96.160286      -31.209509
 H         -36.143551      -97.749329      -32.410320
 H         -34.810986      -98.528893      -31.358006
 H         -36.044048      -95.229607      -29.020931
 H         -34.893166      -96.482857      -28.593206
 H         -34.882511      -95.584892      -32.616852
 H         -34.019585      -96.888275      -33.189980
 H         -33.245461      -95.190773      -29.248592
 H         -34.408371      -94.376808      -30.383654
 H         -32.700890      -95.596519      -31.890533
 H         -32.902977      -97.033035      -30.859838
