20
 generated by VMD
 C         -40.397282     -117.819916      -34.657192
 N         -39.445389     -117.268929      -35.033207
 H         -42.116924     -116.755478      -36.658779
 H         -41.382168     -118.296837      -34.320091
 C         -43.004986     -116.770554      -37.309052
 C         -42.841846     -116.771706      -38.832932
 C         -44.309113     -116.153954      -36.917828
 C         -44.086349     -117.397820      -39.513351
 C         -45.443790     -116.964951      -37.541054
 C         -45.441151     -116.903320      -39.045143
 H         -41.977753     -117.388748      -39.017181
 H         -42.722179     -115.745995      -39.132481
 H         -44.485817     -116.232857      -35.773682
 H         -44.545059     -115.105652      -37.094719
 H         -43.995991     -118.520691      -39.309635
 H         -43.898743     -117.200287      -40.633156
 H         -46.388332     -116.698494      -37.039501
 H         -45.476608     -118.000092      -37.339638
 H         -46.271744     -117.472778      -39.424675
 H         -45.457355     -115.851524      -39.293327
