20
 generated by VMD
 C         -47.702179     -139.506058      -45.922119
 N         -46.698425     -139.044724      -46.225864
 H         -50.979553     -138.470825      -44.783058
 H         -48.570293     -140.105637      -45.742683
 C         -51.824909     -138.984131      -45.237579
 C         -51.938908     -139.352310      -46.752548
 C         -53.092926     -138.815338      -44.421032
 C         -52.992458     -140.450958      -47.053978
 C         -54.297352     -139.726517      -44.884983
 C         -54.317627     -139.872864      -46.345371
 H         -50.928783     -139.624374      -47.291538
 H         -52.207607     -138.438004      -47.341621
 H         -53.022182     -138.746109      -43.351204
 H         -53.255737     -137.817551      -44.725597
 H         -52.570789     -141.436584      -46.643719
 H         -53.105614     -140.575317      -48.142040
 H         -55.261204     -139.526978      -44.521873
 H         -54.051594     -140.689606      -44.339775
 H         -55.167801     -140.599350      -46.678879
 H         -54.667519     -138.875931      -46.731152
