20
 generated by VMD
 C         -10.140526      -36.004124       -8.523354
 N         -10.109628      -35.073345       -9.172625
 H         -13.303595      -37.061398       -6.704040
 H         -14.604168      -37.854919       -5.650664
 C         -14.079237      -37.904816       -6.589055
 C         -13.159286      -39.131088       -6.592496
 C         -15.012978      -37.923195       -7.759821
 C         -13.854543      -40.485123       -6.766316
 C         -15.708161      -39.262768       -7.953292
 C         -14.761260      -40.420639       -8.017455
 H         -12.634530      -39.099911       -5.659799
 H         -12.495258      -39.007359       -7.420647
 H         -15.757882      -37.155369       -7.557011
 H         -14.425256      -37.705231       -8.681960
 H         -14.547362      -40.691608       -5.920867
 H         -13.095525      -41.244144       -6.958474
 H         -16.289097      -39.223034       -8.896690
 H         -16.445784      -39.419510       -7.115007
 H         -15.341892      -41.353935       -7.991070
 H         -14.175503      -40.454433       -8.951176
