20
 generated by VMD
 C         -31.482027      -76.907745      -24.851160
 N         -32.048279      -77.041672      -25.884708
 H         -29.130299      -76.792740      -22.224361
 H         -30.613958      -76.791092      -24.217905
 C         -28.530243      -77.691872      -22.177174
 C         -27.494886      -77.898338      -23.254818
 C         -28.771904      -78.890556      -21.208286
 C         -26.224470      -78.672134      -22.680258
 C         -27.512283      -79.338081      -20.541780
 C         -26.421864      -79.709328      -21.564859
 H         -27.207668      -76.869621      -23.755045
 H         -27.928659      -78.706909      -23.935509
 H         -29.587000      -78.503914      -20.521847
 H         -29.068922      -79.767357      -21.851664
 H         -25.524586      -77.964867      -22.193184
 H         -25.589083      -78.950073      -23.569218
 H         -27.741686      -80.297394      -19.915504
 H         -26.970623      -78.629395      -19.804087
 H         -25.465399      -79.988831      -21.179668
 H         -26.807301      -80.606827      -22.108812
