20
 generated by VMD
 C          -9.163300      -23.917091        2.265800
 N          -8.828980      -24.950150        2.495826
 H          -7.745347      -23.343803       -0.929728
 H          -9.063418      -22.671846       -2.132961
 C          -7.959738      -22.977907       -1.963799
 C          -7.642917      -24.137905       -2.979488
 C          -7.064934      -21.829018       -2.141966
 C          -7.501324      -23.669737       -4.447871
 C          -6.954022      -21.390743       -3.589377
 C          -6.546830      -22.499384       -4.490495
 H          -8.374223      -24.918850       -2.862420
 H          -6.658744      -24.540100       -2.560409
 H          -7.466227      -21.022934       -1.543952
 H          -6.057530      -21.961201       -1.698129
 H          -8.513598      -23.461872       -4.863907
 H          -7.231756      -24.508694       -5.100591
 H          -6.266477      -20.540592       -3.637310
 H          -7.881660      -20.953398       -3.952678
 H          -6.491082      -22.074657       -5.480042
 H          -5.560289      -22.853184       -4.271536
