20
 generated by VMD
 C          -1.234205      -12.365643        1.364120
 N          -0.819657      -12.645611        0.392723
 H          -4.105502      -12.927852        1.105503
 H          -5.812398      -13.163737        0.744466
 C          -4.899578      -13.692081        1.120730
 C          -5.150840      -14.018388        2.606141
 C          -4.542420      -14.923043        0.299495
 C          -6.260651      -15.010484        2.736284
 C          -5.611114      -16.078384        0.480615
 C          -6.023826      -16.268681        1.987917
 H          -5.450087      -13.104108        3.123483
 H          -4.187705      -14.228424        3.153604
 H          -4.592239      -14.641289       -0.836027
 H          -3.439906      -15.246532        0.501517
 H          -7.184646      -14.512355        2.434739
 H          -6.463509      -15.187246        3.772465
 H          -5.243835      -16.979849        0.004174
 H          -6.461230      -15.750484       -0.082647
 H          -6.812979      -17.055874        2.083989
 H          -5.095147      -16.718115        2.377038
