20
 generated by VMD
 C         -40.602913     -104.193542      -36.576080
 N         -39.781796     -105.015755      -36.561924
 H         -40.281811     -106.888252      -34.690487
 H         -41.365982     -103.496140      -36.853653
 C         -39.664650     -107.466599      -34.010464
 C         -38.543762     -106.680618      -33.343651
 C         -40.091175     -108.819366      -33.450657
 C         -38.473621     -106.967789      -31.853043
 C         -39.779270     -109.128639      -31.993284
 C         -38.410240     -108.406136      -31.511791
 H         -38.710693     -105.663368      -33.481800
 H         -37.651741     -107.072899      -33.838707
 H         -41.169067     -108.943733      -33.663555
 H         -39.526131     -109.518677      -34.145897
 H         -39.344303     -106.583084      -31.344490
 H         -37.710945     -106.382019      -31.382950
 H         -39.770103     -110.246529      -31.904331
 H         -40.544876     -108.690842      -31.368715
 H         -38.242496     -108.384094      -30.524235
 H         -37.418705     -108.749969      -31.986485
