20
 generated by VMD
 C         -19.756311      -60.823948      -17.132671
 N         -19.430922      -60.681931      -16.044483
 H         -22.503275      -61.685001      -18.064096
 H         -20.074547      -60.737156      -18.144270
 C         -23.176884      -62.352894      -17.573874
 C         -23.998840      -63.223660      -18.564793
 C         -22.964304      -62.725140      -16.135950
 C         -24.397747      -64.621513      -17.999817
 C         -23.316668      -64.231125      -15.735119
 C         -24.539789      -64.750999      -16.477839
 H         -23.354870      -63.425621      -19.443636
 H         -24.934265      -62.599850      -18.876732
 H         -21.958645      -62.621410      -15.805514
 H         -23.650404      -61.962570      -15.647885
 H         -23.616203      -65.204529      -18.419834
 H         -25.379185      -64.795319      -18.462070
 H         -23.510830      -64.179993      -14.628985
 H         -22.455902      -64.963318      -15.717243
 H         -24.889482      -65.663864      -16.067888
 H         -25.258076      -63.992512      -16.182842
