20
 generated by VMD
 C         -19.480640      -61.563786      -16.166544
 N         -20.087397      -60.981941      -16.959112
 H         -21.647591      -63.008129      -17.914915
 H         -18.708206      -62.197636      -15.546532
 C         -22.601219      -63.415993      -17.668106
 C         -23.719250      -63.552933      -18.635427
 C         -23.135225      -63.633263      -16.278980
 C         -24.805290      -64.656006      -18.501284
 C         -24.048765      -64.836769      -16.052139
 C         -25.226128      -64.920349      -16.985037
 H         -23.225918      -63.804688      -19.624989
 H         -24.250185      -62.587708      -18.706963
 H         -22.200016      -63.508629      -15.651237
 H         -23.837992      -62.844250      -16.100962
 H         -24.438829      -65.643517      -18.795088
 H         -25.680140      -64.545334      -19.169714
 H         -24.505329      -64.695419      -15.026732
 H         -23.380058      -65.714012      -16.061533
 H         -25.768742      -65.905563      -17.021196
 H         -26.035591      -64.297615      -16.692913
