20
 generated by VMD
 C         -79.498695     -206.191696      -74.907623
 N         -79.501320     -206.511978      -73.760376
 H         -78.731911     -206.642868      -71.098480
 H         -79.236855     -205.863541      -75.858185
 C         -77.702995     -206.642761      -70.679802
 C         -76.608696     -205.750687      -71.258820
 C         -77.284508     -207.788925      -69.824196
 C         -75.319321     -205.716705      -70.442429
 C         -75.895332     -207.772446      -69.177345
 C         -74.875542     -207.100510      -70.129616
 H         -77.271576     -204.850357      -71.174042
 H         -76.355522     -205.953629      -72.372551
 H         -77.975716     -207.785782      -68.960739
 H         -77.419983     -208.708405      -70.437645
 H         -75.609978     -205.359894      -69.453056
 H         -74.598862     -205.070465      -70.894699
 H         -75.641602     -208.658203      -68.688332
 H         -76.065460     -207.084213      -68.286285
 H         -73.902328     -207.084396      -69.495399
 H         -74.646622     -207.715057      -70.952110
