20
 generated by VMD
 C         -20.728777      -52.256725       -9.611954
 N         -21.271671      -52.093826      -10.657568
 H         -19.095766      -49.963726      -11.457878
 H         -20.522951      -52.670494       -8.627992
 C         -18.123653      -49.948761      -11.867272
 C         -17.539490      -51.222378      -12.270106
 C         -17.385466      -48.687508      -12.287827
 C         -16.928503      -51.123444      -13.682562
 C         -16.554659      -48.684261      -13.661215
 C         -15.870444      -50.066330      -13.897939
 H         -18.200632      -52.036892      -12.054849
 H         -16.647881      -51.389160      -11.606975
 H         -18.119772      -47.870045      -12.345276
 H         -16.721575      -48.457993      -11.484206
 H         -17.718510      -50.943592      -14.407602
 H         -16.367830      -52.014954      -13.929713
 H         -15.688186      -47.979385      -13.375100
 H         -17.110086      -48.329361      -14.484824
 H         -15.422625      -50.143574      -14.909092
 H         -15.044838      -50.140087      -13.171878
