20
 generated by VMD
 C         -58.536594     -162.005585      -56.461483
 N         -57.515560     -161.570404      -56.323708
 H         -59.425728     -164.633728      -55.401844
 H         -59.543205     -162.445587      -56.488049
 C         -60.232765     -164.091049      -54.976936
 C         -60.011444     -163.690292      -53.501884
 C         -61.701645     -164.486313      -55.448971
 C         -61.155273     -162.771301      -53.103222
 C         -62.670593     -163.268036      -55.073380
 C         -62.663948     -162.963486      -53.574188
 H         -59.062443     -163.100540      -53.404644
 H         -59.846188     -164.624557      -52.931496
 H         -61.748085     -164.531219      -56.547318
 H         -61.910892     -165.527832      -55.137836
 H         -60.804306     -161.776917      -53.574402
 H         -61.042480     -162.499420      -52.034447
 H         -63.708561     -163.661789      -55.430550
 H         -62.412476     -162.399017      -55.723263
 H         -63.190975     -162.069733      -53.230881
 H         -63.039501     -163.796402      -52.912544
