20
 generated by VMD
 C         -78.729111     -208.350037      -76.843407
 N         -79.032318     -208.337128      -75.759071
 H         -79.158897     -209.459076      -73.392769
 H         -78.432976     -208.311691      -77.942711
 C         -78.642990     -209.956177      -72.593048
 C         -77.255783     -209.553574      -72.036209
 C         -79.070747     -211.313599      -71.950836
 C         -76.981377     -209.699631      -70.495674
 C         -79.054863     -211.212418      -70.448097
 C         -77.629547     -210.989243      -69.968300
 H         -77.134850     -208.521439      -72.310837
 H         -76.590439     -210.153183      -72.544037
 H         -80.039986     -211.546234      -72.293991
 H         -78.403496     -212.159637      -72.133522
 H         -77.627235     -208.899826      -70.103081
 H         -75.947060     -209.588364      -70.131287
 H         -79.401222     -212.049133      -69.926949
 H         -79.787155     -210.352280      -70.135841
 H         -77.583199     -210.810959      -68.919151
 H         -77.015099     -211.903748      -70.063118
