20
 generated by VMD
 C         -70.331749     -196.689499      -65.243744
 N         -69.583694     -197.317490      -65.895340
 H         -74.189674     -195.794632      -65.104065
 H         -70.867508     -195.937057      -64.711693
 C         -73.814873     -195.436844      -66.096977
 C         -73.153000     -194.076645      -66.083839
 C         -74.305969     -195.918289      -67.453232
 C         -72.449623     -193.939056      -67.376770
 C         -74.567680     -194.746841      -68.425919
 C         -73.383736     -193.650391      -68.548645
 H         -72.339783     -194.148651      -65.293510
 H         -73.816978     -193.257950      -65.849403
 H         -73.514687     -196.448059      -67.825066
 H         -75.196266     -196.500565      -67.320061
 H         -71.916275     -194.823227      -67.643929
 H         -71.701385     -193.155380      -67.291321
 H         -75.550957     -194.280685      -68.229820
 H         -74.741211     -195.227997      -69.410149
 H         -72.887428     -193.854507      -69.521660
 H         -73.902382     -192.599396      -68.521210
