20
 generated by VMD
 C         -79.601234     -205.386749      -71.692772
 N         -79.795326     -206.493958      -71.587128
 H         -76.860565     -204.183502      -71.987968
 H         -79.246758     -204.412552      -72.016426
 C         -76.298447     -204.118423      -71.050644
 C         -75.449516     -202.981445      -70.700195
 C         -76.363235     -205.272385      -70.038063
 C         -74.055321     -203.329254      -70.199013
 C         -75.201927     -205.460831      -69.189659
 C         -74.016075     -204.828827      -69.706017
 H         -75.982582     -202.447693      -69.930336
 H         -75.481140     -202.264969      -71.568512
 H         -77.329361     -205.068100      -69.459999
 H         -76.560570     -206.245163      -70.551674
 H         -73.976883     -202.737030      -69.318932
 H         -73.289757     -203.057419      -70.857407
 H         -74.966217     -206.525528      -69.012894
 H         -75.564270     -204.966797      -68.253510
 H         -73.193016     -204.851456      -69.053780
 H         -73.663101     -205.378906      -70.603310
