20
 generated by VMD
 C         -78.852615     -204.151138      -70.438278
 N         -79.896248     -204.743301      -70.543541
 H         -76.518036     -203.515656      -68.493530
 H         -77.934441     -203.767944      -70.084244
 C         -75.802383     -203.246948      -69.190735
 C         -75.797188     -201.936295      -69.933243
 C         -74.521988     -204.011429      -69.035698
 C         -74.462769     -201.544083      -70.682053
 C         -73.384254     -202.950729      -68.985420
 C         -73.214760     -202.392944      -70.364281
 H         -76.233788     -201.108582      -69.325035
 H         -76.462059     -201.972168      -70.782410
 H         -74.523224     -204.553741      -68.045357
 H         -74.325317     -204.730515      -69.867821
 H         -74.220795     -200.495895      -70.511940
 H         -74.628792     -201.584976      -71.764633
 H         -72.556450     -203.394196      -68.406731
 H         -73.800140     -202.130249      -68.431343
 H         -72.311272     -201.677078      -70.483215
 H         -73.241493     -203.260284      -71.071091
