20
 generated by VMD
 C          -6.875749      -22.827208        2.181510
 N          -6.069299      -22.798302        2.971446
 H          -5.908191      -20.447670       -0.161214
 H          -7.475012      -21.208750       -0.378624
 C          -6.644125      -20.725666       -0.988720
 C          -6.069850      -21.722826       -1.973199
 C          -7.193944      -19.467224       -1.696637
 C          -7.035681      -22.082804       -3.081077
 C          -8.228057      -19.853573       -2.817982
 C          -7.598453      -20.848730       -3.849113
 H          -5.681320      -22.562851       -1.440213
 H          -5.164034      -21.315382       -2.422529
 H          -7.770535      -18.869610       -0.965850
 H          -6.326422      -19.041540       -2.125210
 H          -7.912079      -22.526463       -2.616288
 H          -6.546169      -22.772493       -3.787486
 H          -8.545927      -18.985058       -3.419549
 H          -9.065349      -20.319084       -2.266382
 H          -8.260055      -21.194796       -4.666333
 H          -6.771425      -20.258778       -4.285777
