20
 generated by VMD
 C         -67.374252     -191.688599      -66.264755
 N         -67.020645     -191.204758      -67.294807
 H         -70.229187     -190.051529      -66.219147
 H         -67.580605     -191.900162      -65.264725
 C         -71.066368     -190.100403      -65.527924
 C         -72.023628     -191.230469      -65.688354
 C         -71.100929     -189.110367      -64.461334
 C         -73.315376     -190.915909      -64.939453
 C         -72.237915     -189.154007      -63.450207
 C         -73.094505     -190.425156      -63.540627
 H         -71.647881     -192.256851      -65.515259
 H         -72.254311     -191.319260      -66.727333
 H         -70.105255     -189.220322      -63.918106
 H         -70.884468     -188.098358      -64.831131
 H         -73.826118     -191.912094      -64.970551
 H         -73.863304     -190.140152      -65.487617
 H         -72.814964     -188.284302      -63.803753
 H         -71.714554     -188.993500      -62.492626
 H         -72.688133     -191.320526      -63.041718
 H         -73.875687     -190.190903      -62.876518
