20
 generated by VMD
 C          -3.533139      -17.411869        2.139434
 N          -3.154360      -18.453966        2.246218
 H          -5.644794      -20.412703        0.640770
 H          -6.009312      -21.096632       -0.996232
 C          -6.113605      -20.195066       -0.344347
 C          -5.519638      -18.967962       -0.923543
 C          -7.580317      -19.984604       -0.109303
 C          -6.208722      -18.339344       -2.121667
 C          -8.341175      -19.358225       -1.277463
 C          -7.658857      -18.062550       -1.771997
 H          -4.493277      -19.060863       -1.256310
 H          -5.559016      -18.207226       -0.162842
 H          -7.992234      -21.061899        0.174365
 H          -7.719947      -19.282309        0.782362
 H          -6.155243      -19.070173       -3.030928
 H          -5.656080      -17.406218       -2.323545
 H          -9.334858      -19.119795       -0.874259
 H          -8.474354      -20.025700       -2.147052
 H          -8.186064      -17.648249       -2.655110
 H          -7.773574      -17.281195       -1.012311
