20
 generated by VMD
 C         -58.913719     -151.958099      -49.026623
 N         -59.073586     -152.201157      -50.101475
 H         -56.187195     -150.434937      -48.230247
 H         -58.651657     -151.834183      -48.022106
 C         -55.719116     -150.199905      -49.131580
 C         -54.731129     -151.214218      -49.675941
 C         -55.292637     -148.820023      -49.169998
 C         -54.134792     -150.760117      -51.044067
 C         -54.858734     -148.363251      -50.526520
 C         -53.606358     -149.279907      -51.029358
 H         -55.194508     -152.206985      -49.660992
 H         -53.978016     -151.367111      -48.794674
 H         -56.109924     -148.113495      -48.972706
 H         -54.420975     -148.692139      -48.550827
 H         -55.017269     -150.848053      -51.725445
 H         -53.437847     -151.462921      -51.479847
 H         -54.546875     -147.380203      -50.467976
 H         -55.705620     -148.663269      -51.295532
 H         -53.410881     -148.941223      -52.039825
 H         -52.774044     -149.233490      -50.312191
