20
 generated by VMD
 C         -72.512291     -198.960907      -65.586754
 N         -72.888573     -199.886581      -64.994835
 H         -71.014595     -195.893753      -67.529205
 H         -72.337936     -198.240509      -66.347679
 C         -72.035492     -195.679764      -67.887329
 C         -72.846176     -194.661804      -67.234642
 C         -72.536201     -196.477585      -69.037666
 C         -74.311111     -194.600983      -67.757332
 C         -73.994179     -196.924728      -68.873695
 C         -74.808945     -195.956161      -68.093742
 H         -72.237434     -193.687943      -67.110680
 H         -72.938545     -194.933502      -66.114876
 H         -72.317780     -195.912659      -69.936890
 H         -71.930161     -197.314514      -69.308685
 H         -74.257843     -194.030579      -68.654404
 H         -74.959526     -194.066391      -67.014465
 H         -74.142014     -197.865540      -68.271408
 H         -74.416489     -197.068451      -69.856697
 H         -75.856613     -195.959946      -68.380035
 H         -74.865822     -196.358429      -67.134140
