20
 generated by VMD
 C         -39.555450      -99.165352      -28.297964
 N         -38.842888      -99.998993      -27.858725
 H         -37.475273      -98.101738      -30.679142
 H         -40.361301      -98.575775      -28.624563
 C         -36.444283      -97.915276      -30.830095
 C         -35.629211      -98.648567      -31.912664
 C         -35.642643      -97.742889      -29.634232
 C         -34.592442      -97.709747      -32.325325
 C         -34.257854      -96.971107      -29.877289
 C         -33.599678      -97.266914      -31.257389
 H         -36.295658      -98.893616      -32.794575
 H         -35.312775      -99.583679      -31.499094
 H         -36.286671      -97.317451      -28.799423
 H         -35.441349      -98.776291      -29.358130
 H         -35.091267      -96.870300      -32.800163
 H         -34.075710      -98.117218      -33.283100
 H         -33.545685      -97.378212      -29.053703
 H         -34.219620      -95.895828      -29.833920
 H         -32.893665      -96.509048      -31.539204
 H         -32.999229      -98.222984      -31.133802
