20
 generated by VMD
 C         -10.130662      -36.181007       -7.214854
 N          -9.990046      -36.891296       -8.074018
 H         -13.305152      -38.272167       -7.938299
 H         -14.590804      -38.779995       -6.693850
 C         -14.169508      -39.024448       -7.693101
 C         -13.573658      -40.383999       -7.735583
 C         -15.251005      -38.877911       -8.762724
 C         -14.645809      -41.412670       -7.476375
 C         -16.270075      -39.986553       -8.658334
 C         -15.754549      -41.356350       -8.549603
 H         -12.788595      -40.505989       -6.961775
 H         -13.143698      -40.599674       -8.730034
 H         -15.689507      -37.832851       -8.708890
 H         -14.807992      -38.990040       -9.740575
 H         -15.165859      -41.224957       -6.519494
 H         -14.116616      -42.355354       -7.471357
 H         -16.969036      -39.857513       -9.538464
 H         -16.892672      -39.748436       -7.821431
 H         -16.579187      -42.049812       -8.161278
 H         -15.451387      -41.766087       -9.527834
