20
 generated by VMD
 C         -21.236092      -56.262108      -17.253717
 N         -20.887022      -55.363979      -17.836632
 H         -23.125872      -58.553192      -15.802289
 H         -21.348814      -57.402580      -16.931318
 C         -22.409252      -59.235905      -15.382854
 C         -21.916748      -58.949856      -13.963897
 C         -21.697645      -60.182735      -16.226055
 C         -20.988787      -60.001331      -13.362906
 C         -20.395433      -60.827324      -15.693464
 C         -20.534895      -61.271652      -14.258649
 H         -22.801317      -58.660404      -13.374847
 H         -21.289091      -58.003494      -13.982958
 H         -22.432100      -60.858334      -16.673254
 H         -21.491796      -59.587826      -17.134085
 H         -21.502966      -60.341469      -12.488896
 H         -20.069302      -59.500919      -13.070824
 H         -19.512228      -60.200947      -15.782914
 H         -20.135265      -61.614021      -16.407095
 H         -21.249561      -62.100189      -14.257336
 H         -19.511471      -61.611401      -13.954292
