20
 generated by VMD
 C         -12.461867      -28.211351       -5.435154
 N         -13.186788      -28.229654       -6.288032
 H         -11.929637      -31.676691       -4.541108
 H         -11.323382      -30.238850       -5.250055
 C         -11.001587      -31.099253       -4.608801
 C          -9.843243      -31.893852       -5.184303
 C         -10.583635      -30.620525       -3.166476
 C          -8.583969      -31.119770       -5.215499
 C          -9.283008      -29.793278       -3.239081
 C          -8.215892      -30.646948       -3.842042
 H         -10.067065      -32.193443       -6.259736
 H          -9.882065      -32.833981       -4.636231
 H         -11.398574      -30.060081       -2.741453
 H         -10.450718      -31.464931       -2.488420
 H          -8.650235      -30.267622       -5.921509
 H          -7.813394      -31.776007       -5.664915
 H          -9.063307      -29.458166       -2.255929
 H          -9.378770      -28.900080       -3.908694
 H          -7.178124      -30.282658       -3.701951
 H          -8.160736      -31.520172       -3.113958
