20
 generated by VMD
 C         -25.799845      -71.210129      -16.983398
 N         -25.894629      -71.978279      -16.138067
 H         -23.993845      -68.940910      -18.810198
 H         -25.548220      -70.519859      -17.861160
 C         -24.592066      -69.223160      -19.658794
 C         -23.874367      -70.300797      -20.469826
 C         -25.877310      -68.504875      -20.062315
 C         -24.917786      -71.196869      -21.331617
 C         -26.808819      -69.381958      -20.883799
 C         -26.106400      -70.253166      -21.923040
 H         -23.209974      -70.992470      -19.864685
 H         -23.164001      -69.960915      -21.170488
 H         -26.448282      -68.105728      -19.166666
 H         -25.649267      -67.627861      -20.673527
 H         -25.254053      -71.878784      -20.584709
 H         -24.289591      -71.764404      -22.089340
 H         -27.515484      -68.830818      -21.540909
 H         -27.425743      -70.032089      -20.225569
 H         -26.754736      -70.852592      -22.553545
 H         -25.718483      -69.551834      -22.646856
