20
 generated by VMD
 C          -1.505032      -11.359707        1.574587
 N          -1.118273      -12.136373        0.913826
 H          -3.642465      -13.257676        0.260259
 H          -5.284911      -12.860205        0.568205
 C          -4.529075      -13.613504        0.807799
 C          -4.231286      -13.780173        2.327022
 C          -5.023715      -14.901330        0.187916
 C          -5.299807      -14.601510        3.073468
 C          -6.126696      -15.592719        0.880443
 C          -5.652027      -15.905051        2.325386
 H          -4.067833      -12.873655        2.868431
 H          -3.296854      -14.399849        2.477936
 H          -5.209775      -14.845837       -0.864311
 H          -4.138819      -15.495633        0.213315
 H          -6.249233      -14.023255        3.259911
 H          -4.987508      -14.901918        4.071406
 H          -6.379132      -16.540657        0.393185
 H          -7.072083      -15.020588        0.975623
 H          -6.419567      -16.411873        2.901204
 H          -4.823539      -16.570601        2.349140
