20
 generated by VMD
 C          -2.205654       -8.623704       -0.875630
 N          -1.725206       -8.226833        0.028650
 H          -3.020037       -9.508699        2.828266
 H          -1.823731      -10.654514        3.310505
 C          -2.914905      -10.586031        3.230721
 C          -3.543974      -11.486951        2.159334
 C          -3.540211      -10.825255        4.567383
 C          -3.371662      -12.906262        2.532759
 C          -3.495708      -12.275330        5.035066
 C          -3.912071      -13.230805        3.900808
 H          -3.139965      -11.374278        1.124978
 H          -4.619648      -11.277766        2.047941
 H          -3.218101      -10.087890        5.296301
 H          -4.627752      -10.632964        4.430380
 H          -2.344721      -13.251840        2.584282
 H          -3.900690      -13.615444        1.870789
 H          -4.240587      -12.453761        5.804726
 H          -2.511935      -12.513074        5.406474
 H          -3.688746      -14.267542        4.159773
 H          -5.020439      -13.232658        3.896155
