20
 generated by VMD
 C         -48.418766     -135.786469      -46.265903
 N         -47.717670     -136.065460      -45.441765
 H         -51.768902     -134.968109      -46.001152
 H         -49.243084     -135.493927      -46.878815
 C         -51.795052     -135.795792      -45.221218
 C         -52.504864     -137.196152      -45.589546
 C         -51.193932     -135.695541      -43.887974
 C         -51.623768     -138.307175      -45.173824
 C         -50.412792     -136.851349      -43.422379
 C         -51.159889     -138.155396      -43.755005
 H         -52.641121     -137.214996      -46.685856
 H         -53.475693     -137.322052      -45.114044
 H         -50.619152     -134.822235      -43.943336
 H         -52.085747     -135.535767      -43.281796
 H         -50.736202     -138.483566      -45.851528
 H         -52.116085     -139.267700      -45.101444
 H         -50.020702     -136.636353      -42.360985
 H         -49.475609     -136.938293      -44.058132
 H         -50.683052     -139.078857      -43.412022
 H         -52.157043     -138.323227      -43.079243
