20
 generated by VMD
 C         -21.245764      -52.047455      -10.187210
 N         -21.443455      -53.070087      -10.688968
 H         -19.603724      -50.176243      -12.981712
 H         -21.117727      -51.353168       -9.567305
 C         -18.613375      -50.485310      -12.838678
 C         -18.180067      -51.838940      -13.402061
 C         -17.654797      -49.506824      -12.259123
 C         -16.962259      -51.611900      -14.265512
 C         -16.275261      -49.523590      -12.929870
 C         -15.929409      -50.967899      -13.299215
 H         -18.950785      -52.311394      -14.016623
 H         -17.876766      -52.516998      -12.557768
 H         -17.956358      -48.432549      -12.218108
 H         -17.620806      -49.801842      -11.226645
 H         -17.114487      -51.083717      -15.212201
 H         -16.510599      -52.563965      -14.617599
 H         -15.528364      -49.062912      -12.222110
 H         -16.256104      -48.925133      -13.773496
 H         -14.908159      -51.082588      -13.703581
 H         -15.947179      -51.555443      -12.356511
