20
 generated by VMD
 C         -12.736122      -27.898867       -5.729080
 N         -13.097010      -28.489454       -6.599760
 H         -12.019818      -31.710211       -4.876595
 H         -11.111601      -30.251591       -5.213267
 C         -11.050423      -31.226709       -4.664306
 C          -9.886180      -32.022701       -5.320665
 C         -10.740450      -30.947414       -3.163862
 C          -8.652195      -31.188253       -5.236988
 C          -9.352732      -30.254408       -3.093315
 C          -8.259620      -31.053045       -3.772149
 H         -10.290248      -32.281857       -6.285599
 H          -9.725426      -32.978722       -4.770703
 H         -11.459471      -30.287003       -2.673388
 H         -10.789786      -31.854630       -2.607969
 H          -8.750734      -30.221922       -5.771147
 H          -7.836154      -31.710884       -5.739102
 H          -9.063890      -30.080498       -2.091630
 H          -9.528780      -29.249197       -3.580386
 H          -7.266756      -30.514858       -3.601146
 H          -8.047422      -32.024368       -3.232054
