20
 generated by VMD
 C          -1.638526      -13.911121        1.269094
 N          -1.861902      -12.830063        1.474691
 H          -3.843867      -17.154284        1.788411
 H          -3.955611      -17.115097       -0.016775
 C          -4.525960      -17.112570        0.923625
 C          -5.146717      -15.750115        1.102130
 C          -5.602459      -18.225435        0.880755
 C          -6.344685      -15.468937        0.224747
 C          -6.833018      -17.968412       -0.014653
 C          -7.413195      -16.570311        0.335267
 H          -4.340427      -15.031245        1.019570
 H          -5.508622      -15.682405        2.127298
 H          -5.199282      -19.239046        0.441025
 H          -6.004194      -18.350111        1.949768
 H          -5.987954      -15.391456       -0.879132
 H          -6.825697      -14.474658        0.397629
 H          -7.647519      -18.749325       -0.047086
 H          -6.436577      -17.928768       -1.030694
 H          -8.327962      -16.405689       -0.225718
 H          -7.717202      -16.588449        1.387172
