20
 generated by VMD
 C         -56.060738     -149.282349      -45.875519
 N         -55.900299     -150.228287      -45.272308
 H         -53.917484     -148.141510      -47.967041
 H         -56.323227     -148.365250      -46.331936
 C         -54.013142     -147.331345      -48.715683
 C         -53.051975     -147.499634      -49.850441
 C         -54.805855     -146.191925      -48.568794
 C         -53.613655     -146.900589      -51.142891
 C         -55.273632     -145.531555      -49.862446
 C         -54.169346     -145.512482      -50.970596
 H         -53.027576     -148.597519      -49.967720
 H         -52.070122     -146.962967      -49.634613
 H         -55.726780     -146.483871      -48.019169
 H         -54.174709     -145.491150      -47.868095
 H         -54.497082     -147.528778      -51.522350
 H         -52.774792     -146.925720      -51.958935
 H         -55.442905     -144.393814      -49.593761
 H         -56.258347     -145.723328      -50.116230
 H         -54.349426     -145.083771      -51.956554
 H         -53.324829     -144.971680      -50.525845
