20
 generated by VMD
 C         -26.980341      -72.152588      -17.523520
 N         -27.488874      -73.175858      -17.293200
 H         -24.590469      -70.028648      -18.731384
 H         -26.243195      -71.344109      -17.811392
 C         -25.031916      -70.509148      -19.617338
 C         -24.333355      -71.550537      -20.375088
 C         -25.640190      -69.504898      -20.563974
 C         -25.202156      -72.236412      -21.383814
 C         -26.548569      -70.163963      -21.492981
 C         -25.868324      -71.119095      -22.380751
 H         -23.980576      -72.212219      -19.702993
 H         -23.523666      -70.956154      -20.758196
 H         -26.172878      -68.733208      -19.995691
 H         -24.864107      -68.951302      -21.043898
 H         -25.991903      -72.755684      -20.862034
 H         -24.734808      -72.997498      -22.012972
 H         -27.113449      -69.402092      -22.107479
 H         -27.426447      -70.683807      -20.934996
 H         -26.571253      -71.717239      -22.942900
 H         -25.083092      -70.679634      -22.947536
