20
 generated by VMD
 C         -20.334534      -64.153343      -16.426796
 N         -19.847784      -63.346611      -17.089966
 H         -23.827570      -63.205696      -17.272802
 H         -20.643404      -65.087448      -16.013367
 C         -24.039865      -64.162224      -17.656843
 C         -24.494127      -64.356415      -19.011442
 C         -24.240295      -65.240265      -16.684286
 C         -24.690248      -65.766220      -19.536097
 C         -24.750961      -66.634308      -17.155802
 C         -25.579508      -66.655411      -18.479942
 H         -23.772020      -63.959717      -19.658527
 H         -25.436125      -63.843292      -19.157291
 H         -23.233074      -65.431511      -16.149439
 H         -24.756376      -64.821915      -15.795738
 H         -23.723131      -66.283470      -19.501932
 H         -25.182077      -65.837181      -20.538675
 H         -25.364906      -67.050255      -16.349483
 H         -23.981636      -67.436806      -17.303722
 H         -25.620855      -67.694122      -18.788195
 H         -26.624388      -66.258049      -18.417381
