20
 generated by VMD
 C         -27.960552      -87.660492      -26.878880
 N         -28.068882      -86.837250      -26.021873
 H         -31.223629      -88.778740      -25.719339
 H         -27.967913      -88.463692      -27.584167
 C         -32.263210      -88.698616      -26.033123
 C         -33.397266      -88.762161      -24.979774
 C         -32.628609      -88.736847      -27.454998
 C         -34.455391      -87.763573      -25.347950
 C         -33.610523      -87.587776      -27.761637
 C         -34.852570      -87.854477      -26.827362
 H         -32.988163      -88.408005      -24.027508
 H         -33.710926      -89.889236      -25.011267
 H         -31.728846      -88.559540      -28.039539
 H         -33.040813      -89.708969      -27.746204
 H         -34.150234      -86.736565      -24.956577
 H         -35.319721      -88.016151      -24.672237
 H         -33.934326      -87.483009      -28.886383
 H         -32.994572      -86.681969      -27.567060
 H         -35.549294      -87.051399      -27.027052
 H         -35.236526      -88.786812      -27.072348
