20
 generated by VMD
 C         -31.523308      -77.617805      -26.361773
 N         -31.734596      -78.014717      -27.393906
 H         -29.383535      -78.977264      -23.937786
 H         -31.087086      -77.392815      -25.324680
 C         -28.976702      -79.659233      -23.164476
 C         -27.460928      -79.903656      -23.014265
 C         -29.847042      -80.834892      -22.705069
 C         -26.999857      -80.730637      -21.791739
 C         -29.354469      -81.606224      -21.473135
 C         -27.872358      -82.033691      -21.775946
 H         -26.928034      -78.998039      -22.922523
 H         -27.185417      -80.336349      -23.987175
 H         -30.866802      -80.513710      -22.438738
 H         -29.955015      -81.470825      -23.621653
 H         -27.144264      -80.236946      -20.777742
 H         -25.931232      -80.987007      -21.816195
 H         -29.904564      -82.518211      -21.260548
 H         -29.427595      -80.850487      -20.577843
 H         -27.537756      -82.662590      -20.957033
 H         -27.787418      -82.506569      -22.694738
