20
 generated by VMD
 C          -2.036978      -15.111781        1.732917
 N          -1.604029      -15.348794        2.735215
 H          -3.931163      -16.304537        0.215668
 H          -4.566197      -17.116856       -1.186949
 C          -4.851969      -16.784933       -0.193348
 C          -5.971175      -15.698543       -0.226498
 C          -5.343397      -17.904419        0.766967
 C          -7.212684      -16.308010       -0.862178
 C          -6.654354      -18.510870        0.323543
 C          -7.701265      -17.511980        0.017269
 H          -5.610993      -14.838340       -0.729589
 H          -6.217282      -15.401566        0.825318
 H          -4.652625      -18.643625        0.771955
 H          -5.381145      -17.565544        1.739864
 H          -7.070321      -16.641100       -1.924711
 H          -8.067221      -15.527737       -0.792805
 H          -6.997151      -19.153341        1.138754
 H          -6.417497      -19.169949       -0.559559
 H          -8.557123      -17.968843       -0.494065
 H          -8.084801      -17.063204        0.905747
