20
 generated by VMD
 C         -61.447899     -172.314880      -54.980473
 N         -60.514713     -173.035660      -55.142262
 H         -62.168667     -170.736450      -58.375954
 H         -62.391209     -171.779861      -54.807804
 C         -62.824398     -170.060043      -57.786144
 C         -62.640804     -168.626968      -57.637047
 C         -64.287178     -170.351196      -57.508957
 C         -63.377071     -167.790009      -58.618877
 C         -65.180122     -169.698395      -58.502682
 C         -64.943970     -168.117310      -58.707676
 H         -61.590851     -168.484741      -57.642719
 H         -62.926701     -168.364777      -56.547867
 H         -64.387238     -171.406097      -57.500557
 H         -64.572426     -170.098373      -56.456978
 H         -63.053524     -168.039398      -59.689411
 H         -63.240398     -166.740555      -58.504723
 H         -66.288033     -169.893448      -58.379181
 H         -64.953697     -170.209244      -59.540485
 H         -65.206612     -167.677063      -59.610535
 H         -65.441025     -167.531723      -57.939236
