20
 generated by VMD
 C         -20.606083      -52.256664       -9.661675
 N         -21.233919      -51.945812      -10.585760
 H         -18.418657      -49.806103      -10.822108
 H         -20.297741      -52.863529       -8.571822
 C         -17.917301      -49.775490      -11.751073
 C         -17.364660      -51.121445      -12.205188
 C         -17.420908      -48.472172      -12.310067
 C         -16.938372      -51.173325      -13.668086
 C         -16.640194      -48.594898      -13.651034
 C         -16.000771      -49.985542      -13.866489
 H         -18.099073      -51.884552      -12.070889
 H         -16.527288      -51.438824      -11.545359
 H         -18.248013      -47.759869      -12.411385
 H         -16.757420      -48.031330      -11.608238
 H         -17.821892      -51.138775      -14.318668
 H         -16.395094      -52.132683      -13.794265
 H         -15.840661      -47.806499      -13.470837
 H         -17.227938      -48.385094      -14.472034
 H         -15.499510      -50.018631      -14.875579
 H         -15.177837      -50.034649      -13.098487
