20
 generated by VMD
 C         -60.226166     -157.307266      -56.093956
 N         -59.703671     -158.128922      -56.813446
 H         -60.320889     -157.527435      -52.711903
 H         -60.594631     -156.635193      -55.301266
 C         -59.407528     -158.097046      -52.845158
 C         -58.098503     -157.857422      -52.252533
 C         -59.512714     -159.520996      -53.209606
 C         -57.589775     -158.697449      -51.062248
 C         -59.325909     -160.411499      -51.948654
 C         -57.872715     -160.141708      -51.320679
 H         -57.994297     -156.718765      -52.041332
 H         -57.391209     -158.199661      -53.082928
 H         -60.545578     -159.631973      -53.644711
 H         -58.793385     -159.945175      -53.883259
 H         -58.111084     -158.421860      -50.093353
 H         -56.441261     -158.614670      -50.735615
 H         -59.498158     -161.516907      -52.178192
 H         -60.168602     -160.166061      -51.179100
 H         -57.781792     -160.802185      -50.386818
 H         -57.090927     -160.520279      -52.085037
