20
 generated by VMD
 C         -49.509159     -131.788513      -46.525398
 N         -50.202152     -132.500076      -47.211319
 H         -47.988956     -133.381012      -44.627007
 H         -49.216526     -131.278137      -45.608765
 C         -48.703426     -133.679581      -43.817425
 C         -49.261574     -135.087723      -43.972652
 C         -49.045074     -132.818512      -42.683372
 C         -49.572289     -135.799332      -42.717159
 C         -49.398499     -133.647171      -41.316101
 C         -50.292191     -134.862274      -41.732269
 H         -48.488674     -135.682281      -44.609421
 H         -50.151264     -134.907822      -44.586639
 H         -48.261837     -132.144089      -42.387852
 H         -49.846268     -132.215622      -43.027748
 H         -48.609509     -136.197372      -42.366543
 H         -50.126862     -136.724106      -42.892681
 H         -50.016670     -132.923782      -40.768349
 H         -48.610085     -134.085922      -40.673401
 H         -50.495983     -135.452194      -40.889046
 H         -51.288246     -134.505646      -42.214836
