20
 generated by VMD
 C         -57.667328     -165.435944      -56.507305
 N         -57.235233     -164.610077      -57.178204
 H         -60.193306     -164.814438      -54.036423
 H         -58.160873     -166.204758      -55.895599
 C         -61.176605     -164.800369      -54.511837
 C         -61.969856     -166.133560      -54.204433
 C         -61.732582     -163.857483      -55.636475
 C         -63.448082     -166.114746      -54.459835
 C         -63.239292     -163.986664      -55.928291
 C         -63.790401     -165.399765      -55.751362
 H         -61.805832     -166.405792      -53.077972
 H         -61.594543     -166.820435      -54.979908
 H         -61.441528     -162.931122      -55.334297
 H         -61.139912     -164.134979      -56.513626
 H         -64.071251     -165.642532      -53.666416
 H         -63.942097     -167.092789      -54.582977
 H         -63.258884     -163.770538      -57.053524
 H         -63.780720     -163.193558      -55.254074
 H         -64.810844     -165.405701      -56.110912
 H         -63.431522     -165.956619      -56.575127
