20
 generated by VMD
 C         -38.741863      -99.023552      -27.217815
 N         -37.820923      -99.289108      -26.569157
 H         -37.214897      -97.312096      -30.222860
 H         -39.698364      -98.945114      -27.741697
 C         -36.278427      -96.978165      -30.545481
 C         -35.624477      -97.482353      -31.830334
 C         -35.292667      -96.502007      -29.457407
 C         -34.230309      -96.948051      -32.181320
 C         -34.277142      -95.508614      -30.135168
 C         -33.432308      -96.152885      -31.135881
 H         -36.330406      -97.303726      -32.658424
 H         -35.601948      -98.631691      -31.769152
 H         -35.876259      -96.158318      -28.593163
 H         -34.666409      -97.394279      -29.182205
 H         -34.334602      -96.271072      -33.028111
 H         -33.585606      -97.848709      -32.391312
 H         -33.479034      -95.176270      -29.376665
 H         -34.734219      -94.653328      -30.576038
 H         -32.792377      -95.484222      -31.687649
 H         -32.740410      -96.754707      -30.445852
