20
 generated by VMD
 C         -70.511276     -196.997238      -66.198685
 N         -69.904823     -196.092911      -65.770500
 H         -71.978867     -194.854965      -64.914284
 H         -71.117836     -197.824585      -66.573242
 C         -72.618217     -194.423218      -65.678551
 C         -72.479317     -192.936188      -66.068527
 C         -73.623123     -195.262314      -66.305725
 C         -73.499069     -192.619705      -67.162224
 C         -73.767288     -195.023254      -67.856422
 C         -73.353638     -193.631348      -68.306046
 H         -71.381775     -192.864304      -66.511398
 H         -72.803467     -192.328735      -65.226196
 H         -73.613678     -196.353882      -66.117355
 H         -74.641411     -195.064774      -65.903252
 H         -73.202217     -191.628571      -67.548309
 H         -74.530350     -192.641495      -66.794708
 H         -74.797058     -195.249435      -68.142647
 H         -73.100052     -195.724945      -68.361702
 H         -72.365204     -193.533218      -68.609856
 H         -74.055656     -193.299438      -69.221977
