20
 generated by VMD
 C         -11.986378      -37.725548       -7.814425
 N         -11.068803      -37.664318       -7.139176
 H         -12.603063      -41.480377       -8.753201
 H         -13.403948      -40.485619       -7.627673
 C         -13.551544      -41.172279       -8.458227
 C         -14.400674      -42.348209       -8.043631
 C         -14.156402      -40.359280       -9.640249
 C         -15.865821      -41.982040       -7.927129
 C         -15.529249      -39.847923       -9.224338
 C         -16.445868      -41.021561       -8.981179
 H         -14.050553      -42.810390       -7.129479
 H         -14.363058      -43.190819       -8.714432
 H         -13.521915      -39.507793       -9.918185
 H         -14.183323      -40.986240      -10.565858
 H         -15.956110      -41.531986       -6.899802
 H         -16.502748      -42.836914       -7.792823
 H         -15.969634      -39.093880       -9.965231
 H         -15.331421      -39.321365       -8.337023
 H         -17.384748      -40.631668       -8.549979
 H         -16.724159      -41.603550       -9.858788
