20
 generated by VMD
 C          -1.924501      -15.905539        1.904332
 N          -1.758102      -15.290754        2.817064
 H          -4.094987      -16.063988        0.144267
 H          -4.544371      -17.129898       -1.178077
 C          -4.906541      -16.697975       -0.237652
 C          -6.081713      -15.803322       -0.560942
 C          -5.348827      -17.767977        0.725972
 C          -7.386045      -16.482983       -0.929217
 C          -6.578819      -18.569038        0.240099
 C          -7.696697      -17.631983        0.048851
 H          -5.730211      -15.032101       -1.317426
 H          -6.286715      -15.161059        0.295381
 H          -4.460295      -18.519310        1.014298
 H          -5.657248      -17.301369        1.761494
 H          -7.360498      -16.918074       -1.901616
 H          -8.192532      -15.797270       -0.971835
 H          -6.821609      -19.337103        0.968734
 H          -6.253750      -19.053671       -0.669273
 H          -8.575356      -18.134932       -0.375484
 H          -8.025710      -17.122583        0.987729
