20
 generated by VMD
 C         -57.791161     -165.522186      -56.427341
 N         -57.224037     -164.755661      -57.150974
 H         -60.245865     -164.863052      -54.268322
 H         -58.206253     -166.264328      -55.728004
 C         -61.261066     -164.880310      -54.679333
 C         -61.947750     -166.123474      -54.233799
 C         -61.804482     -163.889191      -55.599586
 C         -63.404133     -166.121307      -54.610615
 C         -63.258274     -164.056915      -55.800102
 C         -63.754940     -165.487381      -55.913052
 H         -61.776752     -166.250351      -53.225700
 H         -61.448082     -166.909180      -54.763409
 H         -61.482552     -162.862656      -55.233059
 H         -61.304352     -164.113953      -56.533947
 H         -63.907558     -165.528992      -53.802193
 H         -63.823818     -167.100220      -54.566269
 H         -63.643723     -163.445358      -56.587036
 H         -63.795891     -163.523117      -54.958626
 H         -64.847832     -165.409882      -56.118858
 H         -63.250507     -165.970154      -56.823971
