20
 generated by VMD
 C         -38.289604     -112.777214      -36.006706
 N         -37.505440     -112.248116      -36.681328
 H         -41.230957     -115.027924      -34.900616
 H         -39.150055     -113.080551      -35.476398
 C         -42.086678     -114.710678      -35.389122
 C         -42.009045     -114.526649      -36.933937
 C         -43.144054     -113.821060      -34.723473
 C         -43.388630     -114.846367      -37.462719
 C         -44.525330     -114.036705      -35.370907
 C         -44.490475     -113.915344      -36.960026
 H         -41.179520     -115.224915      -37.206341
 H         -41.703552     -113.450912      -37.005939
 H         -43.292160     -114.039970      -33.645500
 H         -42.756676     -112.742401      -34.646790
 H         -43.770592     -115.851410      -37.087204
 H         -43.482151     -114.868690      -38.550262
 H         -45.338829     -113.563789      -34.848732
 H         -44.939194     -115.057030      -35.204010
 H         -45.453136     -114.212212      -37.449368
 H         -44.147732     -112.954910      -37.262074
