20
 generated by VMD
 C          -7.070126      -23.433018        2.033007
 N          -7.277439      -22.352337        1.842483
 H          -8.623088      -23.373608       -1.141430
 H          -9.356946      -22.391830       -2.310986
 C          -8.392556      -22.678549       -1.866438
 C          -7.480879      -23.408260       -2.924313
 C          -7.675100      -21.443615       -1.279791
 C          -6.970221      -22.453831       -4.026360
 C          -7.231243      -20.546183       -2.384596
 C          -6.350418      -21.252010       -3.363921
 H          -7.925088      -24.253689       -3.497915
 H          -6.721685      -23.900314       -2.375091
 H          -8.465812      -20.965902       -0.691468
 H          -6.765526      -21.638075       -0.675078
 H          -7.863132      -22.192131       -4.613979
 H          -6.155543      -22.968292       -4.518544
 H          -6.606545      -19.808338       -1.859052
 H          -8.124210      -20.110153       -2.867654
 H          -6.064476      -20.514721       -4.114989
 H          -5.447369      -21.573195       -2.883690
