20
 generated by VMD
 C         -79.800568     -206.729263      -73.279984
 N         -79.677414     -206.193649      -74.295677
 H         -78.283440     -205.453491      -70.637291
 H         -79.769699     -207.134109      -72.265877
 C         -77.252274     -205.653809      -70.284081
 C         -76.299896     -204.792572      -70.949768
 C         -76.886208     -206.923523      -69.627823
 C         -74.896629     -204.829666      -70.461090
 C         -75.517715     -206.990829      -69.141418
 C         -74.528946     -206.423447      -70.222183
 H         -76.599640     -203.693253      -70.919411
 H         -76.369431     -205.018921      -72.018646
 H         -77.535492     -207.100983      -68.761208
 H         -77.207779     -207.591843      -70.441696
 H         -74.707184     -204.372009      -69.531357
 H         -74.200439     -204.472015      -71.167938
 H         -75.236397     -208.067856      -69.023071
 H         -75.375320     -206.415009      -68.251160
 H         -73.451920     -206.352295      -69.887451
 H         -74.624870     -207.095474      -71.072815
