20
 generated by VMD
 C         -48.027630     -125.031723      -38.695312
 N         -47.152679     -125.803352      -38.707623
 H         -45.150986     -122.892982      -37.686707
 H         -48.849251     -124.385902      -38.779648
 C         -45.076443     -122.909607      -38.794250
 C         -44.211582     -123.897026      -39.416462
 C         -45.641048     -121.817932      -39.690735
 C         -44.447811     -124.237061      -40.802654
 C         -46.011681     -122.352043      -41.023335
 C         -44.819675     -123.066025      -41.694664
 H         -43.970909     -124.750809      -38.801300
 H         -43.205715     -123.372612      -39.611897
 H         -46.632294     -121.499886      -39.187889
 H         -44.984116     -120.904984      -39.774277
 H         -45.170284     -125.043732      -40.944164
 H         -43.633423     -124.851875      -41.263897
 H         -46.402943     -121.619423      -41.711365
 H         -46.906673     -122.915108      -40.994122
 H         -44.844082     -123.200768      -42.801556
 H         -43.987431     -122.353004      -41.521709
