20
 generated by VMD
 C         -47.997982     -140.009567      -45.941437
 N         -46.930904     -139.788589      -45.715458
 H         -51.203400     -138.480743      -45.295254
 H         -48.951431     -140.488464      -46.152485
 C         -51.969250     -139.222778      -45.517044
 C         -52.094200     -139.423721      -47.070614
 C         -53.117371     -139.152298      -44.674652
 C         -53.137733     -140.511673      -47.338482
 C         -54.222641     -140.262466      -45.052494
 C         -54.521114     -140.303116      -46.627689
 H         -51.071896     -139.677551      -47.540577
 H         -52.227486     -138.460831      -47.563972
 H         -52.904114     -139.304886      -43.597366
 H         -53.458950     -138.083282      -44.866066
 H         -52.668488     -141.470261      -47.110847
 H         -53.367100     -140.585007      -48.355305
 H         -55.149620     -140.165222      -44.317650
 H         -53.901089     -141.312881      -44.821995
 H         -55.171509     -141.114853      -46.773628
 H         -54.895748     -139.330185      -46.919029
