20
 generated by VMD
 C         -79.453522     -208.993942      -76.314819
 N         -79.112755     -209.871933      -77.012047
 H         -77.826775     -209.127853      -72.773270
 H         -79.754509     -208.245285      -75.609047
 C         -77.897728     -210.185669      -72.484947
 C         -76.931007     -210.617203      -71.396622
 C         -79.100304     -210.963593      -72.839729
 C         -77.816757     -211.228668      -70.222733
 C         -79.704109     -211.764221      -71.633156
 C         -78.724495     -212.317078      -70.671623
 H         -76.306992     -209.789444      -71.104073
 H         -76.245438     -211.409912      -71.723671
 H         -79.895493     -210.191696      -73.196449
 H         -78.980225     -211.686005      -73.713776
 H         -78.369728     -210.398651      -69.758575
 H         -77.277916     -211.646637      -69.376114
 H         -80.253540     -212.566620      -72.040230
 H         -80.400925     -210.964005      -71.092575
 H         -79.229332     -212.845581      -69.842567
 H         -78.148254     -213.061478      -71.248856
