20
 generated by VMD
 C         -58.821831     -160.153183      -56.997490
 N         -58.394241     -159.961014      -58.063953
 H         -58.617516     -162.039627      -54.857456
 H         -59.270481     -160.202957      -56.009617
 C         -59.491230     -162.074020      -54.209290
 C         -59.024651     -162.324799      -52.792095
 C         -60.884346     -162.281387      -54.700985
 C         -60.104748     -162.000076      -51.746983
 C         -61.952492     -161.971497      -53.576469
 C         -61.523964     -162.579498      -52.165977
 H         -58.128357     -161.775299      -52.496605
 H         -58.730862     -163.360321      -52.701683
 H         -61.177677     -161.521194      -55.518742
 H         -61.045456     -163.186310      -55.248699
 H         -60.183720     -160.893707      -51.872517
 H         -59.750420     -162.335876      -50.671509
 H         -63.004124     -162.301056      -53.863621
 H         -61.945641     -160.842926      -53.455055
 H         -62.253139     -162.029984      -51.447964
 H         -61.609879     -163.675919      -52.052967
