20
 generated by VMD
 C         -50.113804     -130.384674      -46.038139
 N         -50.945332     -130.060715      -45.204697
 H         -47.929218     -132.123154      -44.531837
 H         -49.687744     -130.983337      -46.846218
 C         -48.007805     -132.075577      -43.413265
 C         -48.425491     -133.318832      -42.684940
 C         -48.256775     -130.795822      -42.770916
 C         -47.870659     -133.320145      -41.274303
 C         -47.746002     -130.830215      -41.390579
 C         -48.172291     -132.020264      -40.544994
 H         -48.028645     -134.117737      -43.349545
 H         -49.525139     -133.472168      -42.631134
 H         -47.801899     -129.921524      -43.429787
 H         -49.300320     -130.507431      -42.672058
 H         -46.769787     -133.440628      -41.414314
 H         -48.186230     -134.235626      -40.779076
 H         -47.905197     -129.886551      -40.824501
 H         -46.568020     -130.830246      -41.588684
 H         -47.566410     -131.880798      -39.596764
 H         -49.232876     -132.071289      -40.389084
