20
 generated by VMD
 C         -11.059575      -34.861771       -9.202046
 N         -10.585320      -35.284939       -8.293359
 H         -12.424117      -36.952908       -7.396441
 H         -13.401937      -37.158955       -6.002016
 C         -13.124451      -37.631489       -6.967085
 C         -12.639379      -39.076790       -6.746253
 C         -14.318462      -37.619595       -7.955635
 C         -13.820698      -39.965088       -6.255166
 C         -15.471112      -38.667568       -7.606626
 C         -14.833005      -40.037216       -7.349147
 H         -11.891568      -39.167469       -5.925197
 H         -12.198843      -39.474270       -7.705960
 H         -14.752049      -36.653141       -7.916422
 H         -13.978223      -37.789925       -8.966854
 H         -14.255840      -39.551064       -5.338482
 H         -13.417483      -40.926212       -6.051965
 H         -16.156876      -38.785885       -8.448524
 H         -16.093039      -38.370903       -6.778891
 H         -15.588037      -40.791218       -7.117235
 H         -14.360281      -40.340496       -8.262029
