20
 generated by VMD
 C         -50.223991     -131.723633      -46.813515
 N         -50.079517     -132.058624      -47.921295
 H         -48.597919     -131.446869      -43.746353
 H         -50.085804     -131.791565      -45.741768
 C         -48.835510     -132.249863      -43.107979
 C         -49.572067     -133.511978      -43.498089
 C         -48.691414     -131.936798      -41.616806
 C         -49.121555     -134.687302      -42.651871
 C         -48.162609     -133.165207      -40.835819
 C         -48.965405     -134.438293      -41.170704
 H         -49.411594     -133.576080      -44.532444
 H         -50.709854     -133.319733      -43.282860
 H         -47.942463     -131.160477      -41.682831
 H         -49.588669     -131.389282      -41.171955
 H         -48.146255     -135.044846      -43.020115
 H         -49.888340     -135.443832      -42.860863
 H         -48.186146     -133.055984      -39.692543
 H         -47.100899     -133.212555      -41.143032
 H         -48.528324     -135.411392      -40.805443
 H         -49.911236     -134.523361      -40.675373
