20
 generated by VMD
 C         -69.104935     -180.437439      -60.820396
 N         -69.645088     -181.381287      -60.371861
 H         -67.399445     -177.813156      -59.671436
 H         -68.615952     -179.549667      -61.293785
 C         -66.375740     -177.584946      -59.869938
 C         -65.919205     -177.626465      -61.322422
 C         -65.286453     -177.164963      -58.793621
 C         -64.932671     -176.396133      -61.611710
 C         -64.370728     -176.087036      -59.285053
 C         -63.834187     -176.150070      -60.646317
 H         -66.596687     -177.759766      -62.159454
 H         -65.269066     -178.445312      -61.390385
 H         -65.903961     -176.736801      -57.941154
 H         -64.810875     -178.057816      -58.454361
 H         -65.589561     -175.495163      -61.862282
 H         -64.557228     -176.740921      -62.626820
 H         -63.613144     -176.232224      -58.566776
 H         -64.891693     -175.125366      -59.115734
 H         -63.249313     -175.281494      -61.112137
 H         -63.226547     -177.081207      -60.688946
