20
 generated by VMD
 C         -12.581120      -43.172565       -7.007467
 N         -12.686810      -42.129913       -6.658520
 H         -14.692609      -43.969086       -8.356135
 H         -14.567879      -42.509304       -9.432210
 C         -15.070048      -43.409439       -9.209795
 C         -16.538473      -43.071709       -9.028044
 C         -14.927439      -44.339237      -10.368107
 C         -17.301931      -42.599854      -10.290909
 C         -15.605343      -43.727493      -11.615940
 C         -17.051905      -43.402832      -11.568213
 H         -16.612373      -42.281628       -8.290700
 H         -17.097336      -43.888405       -8.532628
 H         -13.911763      -44.466873      -10.556954
 H         -15.371593      -45.318470      -10.229540
 H         -16.979792      -41.567070      -10.512064
 H         -18.371103      -42.558987      -10.007812
 H         -15.367414      -44.462147      -12.406789
 H         -15.111119      -42.771606      -11.851055
 H         -17.423346      -42.888592      -12.452545
 H         -17.584988      -44.362068      -11.483767
