20
 generated by VMD
 C         -20.099201      -60.521118      -17.002829
 N         -19.131731      -60.125900      -17.493769
 H         -23.404184      -60.419708      -16.853992
 H         -20.949276      -60.880264      -16.347275
 C         -23.327188      -61.528198      -16.718510
 C         -23.283018      -62.393311      -17.972515
 C         -23.343313      -62.094913      -15.374907
 C         -23.570528      -63.925209      -17.741152
 C         -23.003168      -63.645153      -15.293911
 C         -23.984507      -64.259491      -16.308344
 H         -22.296864      -62.352570      -18.451355
 H         -24.106009      -62.081242      -18.653900
 H         -22.631027      -61.524826      -14.698502
 H         -24.394527      -61.998920      -15.117414
 H         -22.653202      -64.572113      -17.858288
 H         -24.329334      -64.272858      -18.483236
 H         -23.241140      -63.906029      -14.273704
 H         -21.984026      -63.945320      -15.446531
 H         -24.067635      -65.324387      -16.248688
 H         -24.945099      -63.892941      -16.049629
