20
 generated by VMD
 C         -76.752625     -203.263367      -66.695023
 N         -77.511238     -203.820892      -66.003441
 H         -75.215439     -200.584976      -68.105835
 H         -76.021759     -202.685806      -67.276009
 C         -74.686829     -199.927536      -68.822823
 C         -74.912041     -198.445053      -68.763145
 C         -73.678513     -200.511230      -69.869530
 C         -73.485497     -197.856110      -68.791061
 C         -73.119606     -199.531952      -70.882408
 C         -72.833878     -198.106018      -70.250725
 H         -75.393936     -198.173889      -67.740898
 H         -75.546440     -198.110504      -69.579330
 H         -72.850784     -200.949860      -69.291359
 H         -74.135612     -201.418808      -70.350891
 H         -72.855919     -198.249954      -68.002647
 H         -73.493736     -196.784576      -68.485680
 H         -73.850266     -199.428329      -71.678139
 H         -72.086227     -199.860794      -71.120506
 H         -71.687637     -198.012726      -70.149109
 H         -73.092415     -197.443008      -71.043343
