20
 generated by VMD
 C         -19.230467      -63.472466      -16.686035
 N         -20.200550      -62.935535      -17.087294
 H         -22.653608      -64.536224      -17.394220
 H         -18.300720      -64.003220      -16.640074
 C         -23.722616      -64.250061      -17.388918
 C         -24.306501      -64.057457      -18.756765
 C         -24.608889      -65.043495      -16.467920
 C         -24.718943      -65.447823      -19.334206
 C         -24.897964      -66.503586      -17.040455
 C         -25.514162      -66.543152      -18.404217
 H         -23.614527      -63.529545      -19.489008
 H         -25.091908      -63.286987      -18.804012
 H         -24.020390      -65.304321      -15.551547
 H         -25.487888      -64.481010      -16.414516
 H         -23.857834      -65.948105      -19.846579
 H         -25.405987      -65.341064      -20.179573
 H         -25.581724      -66.844116      -16.228155
 H         -24.027510      -67.163116      -16.987043
 H         -25.521149      -67.533119      -18.889111
 H         -26.502794      -66.108452      -18.305983
