20
 generated by VMD
 C         -54.079906     -148.011154      -45.478718
 N         -54.534546     -148.096100      -44.386112
 H         -54.461372     -147.901382      -48.440960
 H         -53.471783     -147.893127      -46.407646
 C         -54.334297     -146.947769      -48.997585
 C         -53.188911     -146.712341      -49.972279
 C         -55.177216     -145.764709      -48.238541
 C         -53.424721     -145.397537      -50.798855
 C         -55.128433     -144.557281      -49.233257
 C         -53.736382     -144.226669      -49.876163
 H         -53.080593     -147.519501      -50.653732
 H         -52.158638     -146.694092      -49.450550
 H         -56.169163     -146.157990      -47.985985
 H         -54.640999     -145.545059      -47.236881
 H         -54.134499     -145.668732      -51.580944
 H         -52.458809     -145.284042      -51.225510
 H         -55.486668     -143.588760      -48.700047
 H         -55.858715     -144.628448      -50.137726
 H         -53.900375     -143.239609      -50.449913
 H         -52.928043     -144.231995      -49.061562
