20
 generated by VMD
 C          -9.971279      -24.532883       -0.175512
 N         -10.865534      -25.013123       -0.634284
 H          -6.272788      -24.974325       -0.946256
 H          -8.075056      -24.928749       -1.159484
 C          -7.078772      -24.770613       -1.644150
 C          -6.996287      -25.728212       -2.874968
 C          -6.917283      -23.332672       -2.044067
 C          -7.942529      -25.271776       -4.013671
 C          -7.887233      -22.862732       -3.200727
 C          -7.847661      -23.822172       -4.349876
 H          -7.272608      -26.733959       -2.596817
 H          -5.947148      -25.755915       -3.192102
 H          -7.174726      -22.764345       -1.169957
 H          -5.866244      -23.130484       -2.317571
 H          -9.001454      -25.505308       -3.794195
 H          -7.689284      -25.851330       -4.914620
 H          -7.656541      -21.837511       -3.524901
 H          -8.850898      -22.892645       -2.709155
 H          -8.785737      -23.707823       -4.876249
 H          -6.939486      -23.663202       -4.965790
