20
 generated by VMD
 C         -41.040443     -102.288452      -34.764545
 N         -41.486130     -101.958229      -35.808731
 H         -39.725636     -104.809990      -32.383007
 H         -41.031807     -102.501228      -33.741539
 C         -38.659550     -104.642021      -31.926847
 C         -37.684460     -103.981544      -32.818172
 C         -38.276096     -105.648438      -30.923040
 C         -36.353394     -103.548386      -32.074764
 C         -36.929787     -105.383545      -30.323759
 C         -35.894226     -104.877525      -31.425545
 H         -37.946400     -103.077301      -33.305294
 H         -37.483753     -104.691422      -33.626850
 H         -39.059132     -105.757614      -30.169315
 H         -38.187386     -106.690239      -31.464928
 H         -36.553406     -102.715691      -31.337152
 H         -35.741726     -103.090134      -32.862556
 H         -36.514709     -106.162369      -29.705011
 H         -37.309944     -104.529289      -29.622976
 H         -35.022694     -104.686707      -30.841938
 H         -35.654942     -105.729820      -32.126545
