20
 generated by VMD
 C         -19.928225      -58.949707      -17.288626
 N         -19.276436      -58.865955      -18.269339
 H         -22.692724      -59.656929      -16.420397
 H         -20.292061      -58.828617      -16.192617
 C         -22.728930      -60.679497      -16.130312
 C         -23.481884      -61.537689      -17.169415
 C         -22.663858      -61.325310      -14.802901
 C         -23.224960      -63.090771      -17.089386
 C         -22.384159      -62.785442      -14.692112
 C         -23.179642      -63.689774      -15.688471
 H         -23.348064      -61.225998      -18.235718
 H         -24.628326      -61.274788      -17.004568
 H         -21.943888      -60.727356      -14.258518
 H         -23.578703      -61.109016      -14.263670
 H         -22.256365      -63.295570      -17.566380
 H         -24.032537      -63.598846      -17.658693
 H         -22.750504      -63.099586      -13.720797
 H         -21.374998      -63.085136      -14.617441
 H         -22.797058      -64.731895      -15.675781
 H         -24.164030      -63.768639      -15.329029
