20
 generated by VMD
 C         -29.964949      -79.306046      -25.928150
 N         -30.897852      -78.623627      -26.035446
 H         -29.119503      -82.553818      -25.623219
 H         -29.038294      -79.949394      -25.767532
 C         -28.953823      -82.938019      -24.648609
 C         -28.331598      -81.944389      -23.727562
 C         -29.859552      -83.978294      -24.072527
 C         -29.284060      -81.266403      -22.773554
 C         -30.999769      -83.254265      -23.258526
 C         -30.273947      -82.332581      -22.146301
 H         -27.835184      -81.171837      -24.411264
 H         -27.569000      -82.402847      -23.038719
 H         -30.341961      -84.519753      -24.866285
 H         -29.242954      -84.694313      -23.476652
 H         -29.906775      -80.545372      -23.224270
 H         -28.528528      -80.660446      -22.121109
 H         -31.581369      -84.109352      -22.885950
 H         -31.702421      -82.691109      -23.872761
 H         -31.080770      -81.954552      -21.531525
 H         -29.675957      -83.018700      -21.593784
