20
 generated by VMD
 C          -1.624193      -14.020538        1.506494
 N          -1.892142      -12.948901        1.376019
 H          -3.734560      -17.278677        1.502215
 H          -4.265945      -17.108841       -0.231260
 C          -4.565587      -17.140295        0.817916
 C          -5.210998      -15.746301        1.073931
 C          -5.543979      -18.247253        0.898192
 C          -6.395574      -15.553356        0.140632
 C          -6.781067      -17.986662        0.023640
 C          -7.454013      -16.568254        0.283387
 H          -4.455141      -14.977944        0.943525
 H          -5.598281      -15.631169        2.084073
 H          -5.104568      -19.232464        0.476504
 H          -5.926991      -18.307167        1.950783
 H          -6.067284      -15.396515       -0.964030
 H          -6.852111      -14.558320        0.382066
 H          -7.593923      -18.733746        0.305439
 H          -6.593458      -18.171227       -1.048779
 H          -8.204236      -16.440947       -0.492041
 H          -8.008670      -16.533749        1.224274
