20
 generated by VMD
 C         -31.300783      -75.605492      -23.599079
 N         -30.949198      -76.079117      -24.579878
 H         -29.643087      -78.384773      -21.961199
 H         -32.091843      -75.135414      -22.856663
 C         -28.537813      -78.181328      -21.926352
 C         -27.619236      -78.342964      -23.137749
 C         -27.904730      -78.061913      -20.561129
 C         -26.370817      -77.440964      -23.046873
 C         -26.786341      -77.048996      -20.528242
 C         -25.759197      -77.145645      -21.625755
 H         -28.130262      -78.239761      -24.007177
 H         -27.357582      -79.387970      -23.278374
 H         -28.680176      -78.002045      -19.813835
 H         -27.514406      -79.161713      -20.498831
 H         -26.736141      -76.473183      -23.433006
 H         -25.496140      -77.701042      -23.603743
 H         -26.193098      -77.012314      -19.542587
 H         -27.294073      -76.101868      -20.477396
 H         -25.115314      -76.247047      -21.633436
 H         -25.281940      -78.148064      -21.325714
