20
 generated by VMD
 C         -10.232593      -24.928013       -0.675928
 N         -11.342613      -24.808025       -0.576167
 H          -6.298592      -25.320662       -1.027542
 H          -8.056034      -25.158463       -1.174861
 C          -7.109622      -25.058487       -1.754479
 C          -6.902373      -25.876688       -3.014941
 C          -6.916640      -23.572504       -1.992635
 C          -7.915479      -25.475855       -4.122420
 C          -7.832407      -23.147137       -3.070274
 C          -7.872471      -23.983173       -4.346020
 H          -6.957025      -26.982483       -2.802531
 H          -5.881863      -25.623417       -3.378017
 H          -7.074533      -23.061920       -1.076405
 H          -5.878510      -23.385929       -2.343599
 H          -8.886039      -25.815126       -3.853080
 H          -7.648516      -25.906227       -5.072081
 H          -7.583586      -22.082806       -3.293566
 H          -8.862945      -23.206932       -2.698296
 H          -8.735677      -23.657539       -4.906226
 H          -6.871716      -23.748154       -4.820888
