20
 generated by VMD
 C         -40.176949     -104.954521      -36.906033
 N         -39.587292     -103.974976      -37.097240
 H         -40.009087     -108.470001      -35.321098
 H         -40.854210     -105.763748      -36.787834
 C         -39.658230     -108.698669      -34.278378
 C         -38.615051     -107.984421      -33.614456
 C         -40.298264     -109.842781      -33.584278
 C         -38.867176     -107.548790      -32.180305
 C         -40.550259     -109.536293      -32.090065
 C         -39.400013     -108.845940      -31.427351
 H         -38.361824     -107.110741      -34.207691
 H         -37.679661     -108.623489      -33.590286
 H         -41.225071     -110.256699      -34.012096
 H         -39.491718     -110.668945      -33.750336
 H         -39.701504     -106.770538      -32.045052
 H         -37.976379     -107.114616      -31.686787
 H         -40.628674     -110.515099      -31.626234
 H         -41.367142     -108.888855      -31.876905
 H         -39.711872     -108.582367      -30.447330
 H         -38.487171     -109.657967      -31.272800
