20
 generated by VMD
 C         -65.702400     -177.665253      -56.785919
 N         -66.144066     -176.601196      -56.774090
 H         -65.060326     -175.494751      -59.425964
 H         -65.298843     -178.626785      -56.898689
 C         -64.622070     -174.470581      -59.503281
 C         -65.386177     -173.554657      -58.619759
 C         -63.474995     -174.143890      -60.286194
 C         -65.218826     -172.042282      -58.949051
 C         -63.138229     -172.763809      -60.273682
 C         -64.345375     -171.806824      -60.233608
 H         -65.039818     -173.580078      -57.634144
 H         -66.436958     -173.887360      -58.616264
 H         -62.608334     -174.768158      -60.112213
 H         -63.815456     -174.504639      -61.334400
 H         -64.656624     -171.706924      -58.082020
 H         -66.179359     -171.473877      -58.981136
 H         -62.578857     -172.629074      -61.217175
 H         -62.492729     -172.494553      -59.401512
 H         -64.022758     -170.722824      -60.266636
 H         -65.007240     -172.061829      -61.034977
