20
 generated by VMD
 C         -28.445616      -81.331955      -27.665964
 N         -29.491169      -80.933830      -27.430189
 H         -29.185583      -82.788895      -24.595224
 H         -27.346928      -81.711510      -27.714130
 C         -29.861336      -83.568207      -24.194544
 C         -30.027149      -83.845245      -22.729506
 C         -30.566669      -84.342827      -25.276386
 C         -31.464087      -84.140144      -22.442278
 C         -31.959051      -84.663979      -24.865105
 C         -32.065769      -85.179474      -23.385412
 H         -29.689922      -83.002029      -21.962706
 H         -29.476109      -84.752106      -22.473671
 H         -30.394110      -83.740631      -26.199734
 H         -30.021324      -85.275764      -25.518515
 H         -31.958967      -83.065544      -22.572086
 H         -31.586945      -84.564728      -21.491928
 H         -32.308769      -85.417343      -25.560993
 H         -32.656815      -83.726830      -25.043745
 H         -33.198406      -85.265320      -23.272251
 H         -31.700497      -86.200874      -23.301914
