20
 generated by VMD
 C         -32.211060      -94.009758      -25.312626
 N         -33.190998      -94.589172      -25.465214
 H         -33.983120      -95.117973      -28.577551
 H         -31.405703      -93.388512      -25.292593
 C         -34.228271      -94.153809      -28.933006
 C         -35.626095      -93.584862      -28.656261
 C         -33.513134      -93.533699      -30.077354
 C         -35.584003      -92.091064      -28.509325
 C         -33.645828      -91.988434      -29.993505
 C         -34.988731      -91.319382      -29.742325
 H         -35.998390      -94.041389      -27.774998
 H         -36.146889      -94.044815      -29.438835
 H         -32.516163      -93.908325      -30.244776
 H         -34.037003      -93.748833      -31.040115
 H         -35.122524      -91.903450      -27.530388
 H         -36.601238      -91.772064      -28.410089
 H         -33.260258      -91.589165      -30.980091
 H         -33.074993      -91.503288      -29.228821
 H         -34.856201      -90.309761      -29.519146
 H         -35.678646      -91.508049      -30.535629
