20
 generated by VMD
 C         -69.733215     -183.212692      -65.381927
 N         -70.277756     -182.409500      -66.008316
 H         -67.705078     -184.765259      -62.928066
 H         -69.264740     -183.982361      -64.874275
 C         -67.568840     -183.956543      -62.207253
 C         -67.916077     -184.276123      -60.823994
 C         -67.746056     -182.469406      -62.543121
 C         -67.140663     -183.411926      -59.802956
 C         -67.012962     -181.488968      -61.521881
 C         -67.158302     -181.838318      -60.038136
 H         -67.796364     -185.342896      -60.779362
 H         -69.002266     -184.330154      -60.730049
 H         -67.285934     -182.326248      -63.576694
 H         -68.760605     -182.066406      -62.521938
 H         -66.086731     -183.744736      -59.647720
 H         -67.638420     -183.540787      -58.736366
 H         -67.344284     -180.464645      -61.844761
 H         -65.901329     -181.610580      -61.652184
 H         -66.546509     -181.327911      -59.271057
 H         -68.122200     -181.507217      -59.743080
