20
 generated by VMD
 C         -73.925972     -200.654251      -65.521309
 N         -72.914169     -201.120255      -65.213463
 H         -73.897644     -197.973831      -66.475197
 H         -74.881371     -200.149307      -65.850586
 C         -73.830017     -197.523514      -67.471359
 C         -74.212234     -196.030884      -67.419724
 C         -73.097412     -198.014069      -68.697495
 C         -73.633598     -195.211014      -68.492874
 C         -73.782906     -197.390442      -69.936569
 C         -73.856667     -195.864197      -69.854309
 H         -73.894028     -195.627670      -66.399155
 H         -75.328743     -196.056931      -67.326385
 H         -72.026970     -198.103683      -68.617027
 H         -73.304039     -199.105881      -68.810707
 H         -72.565155     -195.123566      -68.260925
 H         -74.081467     -194.235504      -68.433273
 H         -74.783844     -197.790192      -70.114265
 H         -73.105324     -197.576630      -70.868118
 H         -73.225029     -195.496094      -70.595268
 H         -74.901642     -195.728683      -70.338219
