20
 generated by VMD
 C         -31.375242      -77.602760      -26.089939
 N         -31.703537      -78.008125      -27.164022
 H         -29.306849      -79.076164      -24.048134
 H         -30.841373      -77.263451      -25.108253
 C         -28.928297      -79.763641      -23.322170
 C         -27.504230      -79.702721      -23.043327
 C         -29.879984      -80.645424      -22.647774
 C         -26.964989      -80.575935      -21.908077
 C         -29.276932      -81.471138      -21.514347
 C         -27.783592      -81.740601      -21.641211
 H         -27.227537      -78.655792      -22.905581
 H         -26.931683      -80.046906      -23.944614
 H         -30.695187      -79.988716      -22.352575
 H         -30.316250      -81.358368      -23.355633
 H         -26.842278      -80.032005      -20.905346
 H         -25.960604      -80.789230      -22.249321
 H         -29.836603      -82.356888      -21.578781
 H         -29.646517      -81.055588      -20.551434
 H         -27.347778      -82.207596      -20.769081
 H         -27.635057      -82.514229      -22.358978
