20
 generated by VMD
 C         -10.733240      -37.399647       -8.057887
 N         -10.734501      -36.289764       -7.862576
 H         -13.320925      -37.459980       -7.740616
 H         -14.495695      -38.089905       -6.567714
 C         -14.007366      -38.351284       -7.497277
 C         -13.150949      -39.588371       -7.418168
 C         -15.116754      -38.446739       -8.481426
 C         -14.000379      -40.872761       -7.333884
 C         -15.975189      -39.632111       -8.164586
 C         -15.075315      -40.842739       -8.368725
 H         -12.552426      -39.389023       -6.542796
 H         -12.532254      -39.667847       -8.301538
 H         -15.742543      -37.529434       -8.375473
 H         -14.748829      -38.543610       -9.468207
 H         -14.461036      -41.013493       -6.311507
 H         -13.358570      -41.670628       -7.662548
 H         -16.779083      -39.736359       -8.971439
 H         -16.479794      -39.680363       -7.244833
 H         -15.665659      -41.766880       -8.332979
 H         -14.649344      -40.861420       -9.347825
