20
 generated by VMD
 C         -60.000046     -157.412643      -56.460964
 N         -59.377224     -158.449249      -56.508377
 H         -60.242146     -157.523224      -53.000061
 H         -60.544353     -156.471649      -56.549030
 C         -59.494110     -158.300323      -52.857491
 C         -58.221680     -158.019638      -52.280827
 C         -59.899033     -159.707428      -53.099525
 C         -57.796078     -158.988815      -51.227753
 C         -59.553341     -160.714615      -52.056530
 C         -58.050987     -160.482391      -51.677914
 H         -58.457180     -157.088043      -51.796143
 H         -57.507000     -158.035736      -53.110931
 H         -61.041290     -159.673782      -53.274132
 H         -59.455383     -160.033356      -54.055344
 H         -58.235035     -158.555527      -50.333359
 H         -56.679546     -158.835922      -51.022141
 H         -59.529202     -161.761841      -52.360954
 H         -60.294323     -160.748566      -51.189678
 H         -57.811798     -161.257965      -50.922901
 H         -57.394531     -160.747925      -52.504078
