20
 generated by VMD
 C         -12.505168      -27.638195       -4.637412
 N         -13.153278      -27.972347       -5.500205
 H         -10.915074      -30.702188       -2.906142
 H         -10.919176      -29.157852       -3.723525
 C         -10.253036      -29.957481       -3.388259
 C          -9.582807      -30.661003       -4.568236
 C          -9.330526      -29.285988       -2.455325
 C          -8.745766      -29.602629       -5.306921
 C          -8.393535      -28.324434       -3.170332
 C          -7.750976      -28.949728       -4.373688
 H         -10.360820      -31.032228       -5.207188
 H          -8.860838      -31.462524       -4.197090
 H          -9.903497      -28.749224       -1.686639
 H          -8.652771      -29.982616       -1.934924
 H          -9.414372      -28.816458       -5.737205
 H          -8.088217      -30.082943       -6.031210
 H          -7.682807      -28.087795       -2.426037
 H          -9.032439      -27.432690       -3.420570
 H          -7.299699      -28.106829       -4.934597
 H          -6.965957      -29.657167       -4.213683
