20
 generated by VMD
 C         -13.915930      -28.077198       -2.962973
 N         -14.048966      -27.168673       -3.585425
 H         -10.365864      -28.124165       -3.060709
 H          -9.859387      -27.026770       -4.286632
 C          -9.472109      -27.797607       -3.557283
 C          -8.904181      -29.009426       -4.250645
 C          -8.427441      -27.179314       -2.620833
 C          -7.625998      -28.565702       -5.004296
 C          -7.184732      -26.780458       -3.353395
 C          -6.590031      -27.948153       -4.070042
 H          -9.696301      -29.487207       -4.839995
 H          -8.603696      -29.880331       -3.551242
 H          -8.865252      -26.347540       -2.066108
 H          -8.263143      -27.938236       -1.889524
 H          -7.927453      -27.868059       -5.826913
 H          -7.104260      -29.405186       -5.569774
 H          -6.478389      -26.428164       -2.609123
 H          -7.338867      -25.863401       -4.007375
 H          -5.745505      -27.562794       -4.677259
 H          -6.250689      -28.733067       -3.408731
