20
 generated by VMD
 C         -19.986347      -50.136101       -9.775120
 N         -19.899355      -51.237549       -9.603889
 H         -16.987558      -48.693661      -10.009182
 H         -20.339977      -49.017281      -10.323446
 C         -16.843563      -48.667938      -11.132960
 C         -15.936891      -49.777229      -11.552343
 C         -17.481371      -47.666378      -12.044555
 C         -15.956306      -50.059784      -13.047654
 C         -17.951099      -48.346394      -13.293886
 C         -16.723919      -49.012810      -13.919712
 H         -16.151306      -50.615322      -10.932715
 H         -14.907720      -49.462521      -11.283334
 H         -18.278694      -47.167671      -11.511945
 H         -16.816605      -46.855755      -12.248689
 H         -16.550003      -50.978611      -13.207418
 H         -14.934638      -50.299252      -13.442742
 H         -18.327578      -47.586872      -14.024715
 H         -18.737041      -49.078850      -13.047632
 H         -16.970734      -49.521542      -14.886209
 H         -16.069952      -48.115986      -14.075264
