20
 generated by VMD
 C         -41.870628     -101.488350      -32.842026
 N         -41.373913     -101.593384      -33.892056
 H         -38.660294     -103.649292      -32.676460
 H         -42.305279     -101.120056      -31.889751
 C         -37.817490     -103.345200      -32.065788
 C         -36.669090     -103.155800      -33.075489
 C         -37.570133     -103.667313      -30.679359
 C         -35.414131     -102.501686      -32.368713
 C         -36.422318     -102.854691      -30.059719
 C         -35.182457     -103.028130      -30.947975
 H         -36.947498     -102.588112      -33.985443
 H         -36.300285     -104.171188      -33.437569
 H         -38.530617     -103.284065      -30.090351
 H         -37.409039     -104.710800      -30.449520
 H         -35.503967     -101.455414      -32.415180
 H         -34.598049     -102.823639      -32.967964
 H         -36.256966     -103.185745      -29.020325
 H         -36.778461     -101.792763      -29.984711
 H         -34.291599     -102.501663      -30.662743
 H         -34.934910     -104.101372      -31.068739
