20
 generated by VMD
 C         -50.334465     -131.846588      -46.889809
 N         -50.029865     -132.134155      -48.025547
 H         -48.559483     -131.402344      -43.760799
 H         -50.646542     -131.266510      -46.035999
 C         -48.826103     -132.234802      -43.045506
 C         -49.568962     -133.490753      -43.478832
 C         -48.590015     -132.058563      -41.567616
 C         -49.063301     -134.728378      -42.686878
 C         -48.216583     -133.308334      -40.826668
 C         -49.138802     -134.491486      -41.210598
 H         -49.338783     -133.435150      -44.562660
 H         -50.581009     -133.325470      -43.361168
 H         -47.831253     -131.170059      -41.516685
 H         -49.534145     -131.732178      -41.202469
 H         -48.020271     -134.872299      -43.022861
 H         -49.682018     -135.514618      -43.099468
 H         -48.429764     -133.239151      -39.805099
 H         -47.170399     -133.573807      -41.159992
 H         -49.122513     -135.386276      -40.604176
 H         -50.198669     -134.184280      -40.942471
