20
 generated by VMD
 C         -22.990923      -53.498550      -13.726909
 N         -23.575069      -52.809017      -14.424567
 H         -20.735516      -55.261471      -14.260458
 H         -22.553490      -54.413361      -13.257412
 C         -19.648996      -54.965916      -14.022288
 C         -19.043394      -53.567978      -13.766166
 C         -18.736063      -56.122581      -14.335409
 C         -17.866255      -53.571739      -12.810381
 C         -17.508106      -56.045143      -13.422225
 C         -16.911783      -54.638775      -13.396804
 H         -19.786331      -52.831299      -13.422443
 H         -18.854404      -53.091568      -14.723303
 H         -19.212635      -57.045517      -14.208551
 H         -18.505224      -56.000423      -15.407413
 H         -18.095972      -53.934246      -11.798493
 H         -17.391747      -52.596859      -12.723645
 H         -16.717945      -56.636208      -13.803090
 H         -17.754000      -56.403805      -12.379539
 H         -15.942700      -54.651440      -12.891740
 H         -16.707647      -54.368183      -14.455822
