20
 generated by VMD
 C         -30.772453      -78.413429      -25.307074
 N         -31.254818      -77.424583      -25.033331
 H         -29.294346      -77.068596      -22.722853
 H         -30.345060      -79.143036      -25.831766
 C         -28.762106      -78.036804      -22.535147
 C         -27.486975      -78.243553      -23.295015
 C         -29.520681      -79.171371      -22.093937
 C         -26.526125      -79.133926      -22.404501
 C         -28.634569      -80.186523      -21.328705
 C         -27.273012      -80.519920      -21.984198
 H         -27.031828      -77.184105      -23.576420
 H         -27.740700      -78.658707      -24.332426
 H         -30.448154      -78.994148      -21.479984
 H         -29.942741      -79.754372      -22.900684
 H         -26.271263      -78.478088      -21.577936
 H         -25.575483      -79.442757      -22.930338
 H         -29.101551      -81.169785      -21.271042
 H         -28.330494      -79.780647      -20.264383
 H         -26.727430      -80.988998      -21.242506
 H         -27.333685      -81.157806      -22.862835
