20
 generated by VMD
 C         -12.666659      -27.848005       -4.329328
 N         -13.763914      -27.811539       -4.468878
 H         -10.674128      -29.403891       -2.640839
 H         -10.499916      -28.046202       -3.622427
 C          -9.928077      -28.888754       -3.245662
 C          -9.407165      -29.767675       -4.369614
 C          -8.788301      -28.328377       -2.331954
 C          -8.459083      -28.958090       -5.252049
 C          -7.690452      -27.637150       -3.160032
 C          -7.266690      -28.510254       -4.447047
 H         -10.223405      -30.146349       -4.994077
 H          -8.742693      -30.564344       -3.983220
 H          -9.218613      -27.722557       -1.520009
 H          -8.371838      -29.176088       -1.832165
 H          -9.050411      -28.069757       -5.575758
 H          -8.181916      -29.623549       -6.119379
 H          -6.830040      -27.421776       -2.558436
 H          -8.151354      -26.720409       -3.561978
 H          -6.495241      -27.947855       -5.012598
 H          -6.769790      -29.335184       -3.993215
