20
 generated by VMD
 C          -1.768991      -16.733475        2.845546
 N          -2.167601      -15.837755        2.312149
 H          -4.214845      -15.969467       -0.201662
 H          -4.593514      -17.173136       -1.364397
 C          -5.025877      -16.653481       -0.534870
 C          -6.387903      -15.857571       -0.837655
 C          -5.348101      -17.558809        0.659365
 C          -7.507401      -16.874140       -1.267132
 C          -6.416239      -18.546455        0.398132
 C          -7.689535      -17.877234       -0.109179
 H          -6.183107      -15.126912       -1.581782
 H          -6.761773      -15.296014        0.057135
 H          -4.426548      -18.228090        0.880922
 H          -5.553168      -17.000238        1.665639
 H          -7.210086      -17.386179       -2.188824
 H          -8.466322      -16.310804       -1.364725
 H          -6.678010      -19.108198        1.320501
 H          -6.081322      -19.301575       -0.364352
 H          -8.395447      -18.678709       -0.364832
 H          -8.096730      -17.342653        0.752348
