20
 generated by VMD
 C         -77.265289     -203.547440      -67.120895
 N         -77.987885     -204.377670      -66.769028
 H         -75.790604     -200.764511      -68.831253
 H         -76.707840     -202.871353      -67.684593
 C         -74.854347     -200.310974      -68.827843
 C         -74.765274     -198.817490      -68.591240
 C         -73.754700     -201.079422      -69.602867
 C         -73.625969     -198.051270      -69.360497
 C         -72.772362     -200.168167      -70.444656
 C         -73.359978     -198.836624      -70.745773
 H         -74.612167     -198.811111      -67.452446
 H         -75.757751     -198.270416      -68.778107
 H         -73.111954     -201.657959      -68.963768
 H         -74.205086     -201.778625      -70.353195
 H         -72.683655     -198.118530      -68.737198
 H         -73.779495     -196.952911      -69.410706
 H         -72.455391     -200.829742      -71.313454
 H         -71.778671     -200.080444      -69.840187
 H         -72.601624     -198.222275      -71.324326
 H         -74.294205     -198.731613      -71.342880
