20
 generated by VMD
 C         -30.030659      -79.279762      -25.874290
 N         -30.939823      -78.607552      -26.076763
 H         -28.500410      -82.866196      -25.764250
 H         -29.159147      -79.947975      -25.678013
 C         -28.912653      -82.893822      -24.713062
 C         -28.231844      -81.936073      -23.698584
 C         -29.925955      -83.836349      -24.104910
 C         -29.356167      -81.311829      -22.760990
 C         -30.842163      -83.119194      -23.140341
 C         -30.193512      -82.319038      -22.093855
 H         -27.711946      -81.103371      -24.202097
 H         -27.582613      -82.535034      -23.151855
 H         -30.574459      -84.325958      -24.943911
 H         -29.323185      -84.633224      -23.600176
 H         -29.940544      -80.672455      -23.359575
 H         -28.792648      -80.656250      -22.110603
 H         -31.595375      -83.897484      -22.627151
 H         -31.479942      -82.461052      -23.742296
 H         -31.068968      -81.718140      -21.592623
 H         -29.718662      -83.109894      -21.410194
