20
 generated by VMD
 C          -1.432295       -9.527413        1.137715
 N          -1.819182       -9.814114        0.132500
 H          -2.932897      -12.179585        1.581969
 H          -3.744912      -12.017898        3.113395
 C          -3.655410      -12.646589        2.210300
 C          -2.959983      -13.975699        2.516093
 C          -4.994485      -12.819069        1.422817
 C          -3.928586      -14.966393        3.213611
 C          -5.928438      -13.681388        2.283570
 C          -5.304936      -15.084189        2.558943
 H          -2.166934      -13.844869        3.294420
 H          -2.586275      -14.508068        1.676924
 H          -5.489910      -11.787602        1.298305
 H          -4.828710      -13.257476        0.354100
 H          -4.081369      -14.453541        4.200912
 H          -3.332470      -15.898841        3.418166
 H          -6.893550      -13.821270        1.814711
 H          -6.043524      -13.167791        3.206584
 H          -5.993466      -15.685897        3.205373
 H          -5.239154      -15.627279        1.587388
