20
 generated by VMD
 C         -21.830917      -66.880455      -16.786366
 N         -21.018757      -66.910126      -15.970192
 H         -23.755760      -65.243210      -17.801733
 H         -22.669188      -66.736115      -17.559114
 C         -24.496859      -65.642715      -18.565811
 C         -24.084124      -66.160927      -19.881701
 C         -25.797569      -66.138840      -17.988972
 C         -24.283298      -67.579308      -19.966532
 C         -26.161734      -67.552216      -18.405664
 C         -25.744062      -67.976646      -19.806948
 H         -22.988140      -65.786888      -20.117523
 H         -24.707888      -65.653374      -20.679642
 H         -25.912989      -66.169624      -16.935972
 H         -26.459011      -65.484161      -18.445944
 H         -23.706041      -68.088692      -19.171911
 H         -23.953592      -68.052063      -20.900225
 H         -27.268465      -67.630371      -18.297161
 H         -25.727278      -68.279015      -17.695425
 H         -25.917400      -69.043983      -19.842072
 H         -26.403345      -67.519028      -20.570772
