20
 generated by VMD
 C         -68.052231     -179.046860      -58.260418
 N         -67.086555     -178.539337      -57.892864
 H         -65.973236     -176.555573      -58.928455
 H         -68.980362     -179.502075      -58.631111
 C         -65.351784     -175.850220      -59.565140
 C         -66.110542     -174.700974      -60.221863
 C         -63.867821     -175.896545      -59.621639
 C         -65.326218     -173.443634      -60.242500
 C         -63.106167     -174.547348      -59.732780
 C         -63.884449     -173.483078      -60.570816
 H         -67.102501     -174.643005      -59.786674
 H         -66.397346     -174.947052      -61.229980
 H         -63.448467     -176.514496      -58.807247
 H         -63.643227     -176.354385      -60.536991
 H         -65.397728     -173.065262      -59.139973
 H         -65.800705     -172.764755      -61.025425
 H         -62.124001     -174.556274      -60.225574
 H         -63.015419     -174.251709      -58.650452
 H         -63.315861     -172.543793      -60.622963
 H         -63.709995     -173.834137      -61.573338
