20
 generated by VMD
 C         -37.961258     -114.147346      -35.387447
 N         -38.556625     -115.122131      -35.145115
 H         -41.405937     -114.581444      -36.554790
 H         -37.480930     -113.178726      -35.306805
 C         -42.371597     -114.997887      -36.706814
 C         -42.877190     -114.943703      -38.173531
 C         -43.450924     -114.857193      -35.752686
 C         -44.090672     -115.869911      -38.426624
 C         -44.784454     -115.689537      -36.103519
 C         -45.178371     -115.451454      -37.558472
 H         -42.050308     -115.293808      -38.791660
 H         -42.970966     -113.869316      -38.449814
 H         -43.256378     -115.339394      -34.782700
 H         -43.725574     -113.777504      -35.795029
 H         -43.849735     -116.965393      -38.223743
 H         -44.511608     -115.860283      -39.416157
 H         -45.575726     -115.387314      -35.388451
 H         -44.598804     -116.763229      -36.125092
 H         -46.087776     -115.821434      -37.818176
 H         -45.480701     -114.365440      -37.517960
