20
 generated by VMD
 C         -24.877350      -70.751389      -16.694698
 N         -25.172091      -70.859726      -15.579930
 H         -23.780706      -68.224709      -18.934258
 H         -24.732788      -70.603027      -17.744009
 C         -24.483343      -68.823944      -19.549219
 C         -23.857494      -69.446236      -20.700893
 C         -25.861591      -68.268242      -19.658693
 C         -24.812515      -70.370880      -21.332174
 C         -26.784428      -69.111473      -20.444324
 C         -26.156948      -69.719749      -21.662725
 H         -22.946907      -69.925369      -20.340893
 H         -23.605659      -68.553436      -21.446514
 H         -26.316599      -67.849159      -18.713177
 H         -25.793005      -67.329918      -20.419079
 H         -25.019613      -71.261536      -20.675777
 H         -24.412115      -70.735985      -22.299513
 H         -27.744360      -68.592651      -20.742073
 H         -27.090839      -69.864761      -19.631075
 H         -26.700964      -70.534035      -22.158331
 H         -26.011608      -69.028244      -22.518888
