20
 generated by VMD
 C          -8.075779      -23.560032        2.087845
 N          -7.721974      -23.548182        3.155278
 H          -8.836415      -23.579704       -1.560526
 H          -9.383751      -22.485422       -2.915479
 C          -8.565825      -22.936859       -2.351523
 C          -7.772652      -23.802753       -3.355324
 C          -7.745322      -21.759691       -1.859364
 C          -7.024598      -22.898930       -4.371581
 C          -6.976402      -20.977551       -2.912508
 C          -6.141318      -21.866274       -3.735840
 H          -8.448968      -24.485716       -3.812716
 H          -7.000194      -24.439499       -2.842573
 H          -8.371261      -21.079552       -1.298988
 H          -6.999337      -22.163687       -1.131560
 H          -7.668119      -22.398632       -5.124085
 H          -6.435914      -23.466747       -5.100157
 H          -6.308197      -20.213539       -2.496184
 H          -7.657605      -20.368471       -3.535389
 H          -5.656916      -21.267675       -4.544565
 H          -5.349578      -22.296310       -3.062951
