20
 generated by VMD
 C         -51.418457     -145.646515      -44.030411
 N         -51.322735     -146.423965      -44.852238
 H         -53.627762     -144.862259      -46.545864
 H         -51.315830     -144.915588      -43.275471
 C         -53.691078     -144.311432      -47.478188
 C         -52.761341     -144.226074      -48.645397
 C         -54.837261     -143.376938      -47.390770
 C         -53.493458     -143.915070      -49.979710
 C         -55.377460     -142.909698      -48.696579
 C         -54.390385     -142.722870      -49.772217
 H         -52.325493     -145.211380      -48.800846
 H         -51.946556     -143.606033      -48.588280
 H         -55.691120     -143.733749      -46.824722
 H         -54.471905     -142.626938      -46.592331
 H         -53.943504     -144.806580      -50.563042
 H         -52.755295     -143.443466      -50.775524
 H         -55.872272     -141.909058      -48.647575
 H         -56.100876     -143.614456      -49.046741
 H         -54.822395     -142.543228      -50.746387
 H         -53.788937     -141.887329      -49.529762
