20
 generated by VMD
 C         -38.249035     -110.332405      -36.155842
 N         -37.715977     -109.315323      -36.274021
 H         -40.260849     -113.751976      -35.728580
 H         -38.708244     -111.351776      -36.023544
 C         -41.202805     -113.133980      -35.917908
 C         -42.239239     -113.869843      -36.656429
 C         -41.526329     -111.976074      -35.025829
 C         -43.411423     -114.229736      -35.757458
 C         -42.567417     -112.433838      -34.143864
 C         -43.820862     -112.912346      -34.918209
 H         -41.929100     -114.666016      -37.316681
 H         -42.712654     -113.143478      -37.407284
 H         -40.592415     -111.614113      -34.521400
 H         -41.844788     -111.184036      -35.693905
 H         -43.090389     -114.957756      -34.915722
 H         -44.235104     -114.476608      -36.426231
 H         -42.904591     -111.700951      -33.503586
 H         -42.137604     -113.220070      -33.580536
 H         -44.665596     -113.243301      -34.273289
 H         -44.188065     -112.135780      -35.670944
