20
 generated by VMD
 C         -48.528046     -135.789749      -46.214195
 N         -47.705734     -136.154785      -45.419483
 H         -51.491711     -135.135406      -46.102062
 H         -49.340912     -135.439056      -46.895432
 C         -51.655117     -135.836380      -45.360458
 C         -52.501282     -137.167160      -45.616772
 C         -51.228268     -135.735001      -43.973427
 C         -51.617279     -138.326324      -45.171036
 C         -50.518654     -136.977768      -43.470943
 C         -51.253670     -138.314697      -43.689457
 H         -52.828766     -137.220917      -46.683521
 H         -53.359196     -137.260056      -44.936611
 H         -50.560623     -134.807327      -43.966537
 H         -52.170582     -135.482162      -43.446239
 H         -50.763157     -138.423569      -45.798164
 H         -52.018024     -139.354202      -45.292023
 H         -50.158428     -136.770523      -42.497761
 H         -49.636654     -137.134506      -44.033485
 H         -50.647594     -139.326447      -43.412197
 H         -52.211376     -138.297607      -43.163311
