20
 generated by VMD
 C         -65.321747     -176.931320      -56.111481
 N         -65.816452     -177.381134      -55.181408
 H         -63.894379     -174.768555      -59.140148
 H         -64.823524     -176.517426      -56.965561
 C         -64.194580     -173.799744      -59.428318
 C         -65.277260     -172.859787      -58.838818
 C         -63.669918     -173.371231      -60.706867
 C         -64.658951     -171.429291      -58.566929
 C         -63.189159     -171.931900      -60.675980
 C         -64.183319     -170.855682      -60.036518
 H         -65.634567     -173.410751      -58.010178
 H         -66.096024     -172.683762      -59.652012
 H         -62.815910     -173.984024      -61.027508
 H         -64.208664     -173.558014      -61.552780
 H         -63.680721     -171.418594      -57.968037
 H         -65.432442     -170.836929      -58.000481
 H         -63.104023     -171.635712      -61.774448
 H         -62.239727     -171.917191      -60.208824
 H         -63.742416     -169.839233      -60.002316
 H         -65.043182     -170.798096      -60.636047
