20
 generated by VMD
 C         -10.983957      -33.511864       -9.434332
 N         -10.685033      -32.724255       -8.733266
 H         -12.046866      -35.952248       -7.920192
 H         -12.368637      -35.280319       -6.344592
 C         -12.542866      -36.205387       -6.967526
 C         -11.734252      -37.388985       -6.409436
 C         -14.063430      -36.429604       -7.154198
 C         -12.414871      -37.968201       -5.171101
 C         -14.663822      -37.191948       -6.018811
 C         -13.808096      -38.393040       -5.577374
 H         -10.736279      -37.072628       -6.106213
 H         -11.609451      -38.195259       -7.112442
 H         -14.522722      -35.457432       -7.193543
 H         -14.155065      -36.991920       -8.119986
 H         -12.496209      -37.217720       -4.383961
 H         -11.766252      -38.792061       -4.759974
 H         -15.607593      -37.531166       -6.277258
 H         -14.726707      -36.492249       -5.131700
 H         -14.306046      -38.789761       -4.668302
 H         -13.845878      -39.098717       -6.397008
