20
 generated by VMD
 C         -68.301399     -185.739105      -67.027367
 N         -68.035065     -184.683670      -67.493774
 H         -69.084663     -188.260849      -64.839241
 H         -68.405693     -186.727570      -66.651932
 C         -69.427055     -187.887360      -63.922104
 C         -69.066666     -186.488297      -63.541645
 C         -70.477631     -188.673569      -63.057503
 C         -69.444336     -186.151901      -62.049770
 C         -70.777931     -188.172272      -61.627079
 C         -70.754112     -186.678833      -61.518871
 H         -69.765701     -185.878510      -64.164261
 H         -68.022438     -186.279678      -63.760914
 H         -71.427673     -188.833984      -63.641342
 H         -70.012604     -189.728989      -62.924404
 H         -69.390182     -185.029495      -62.129070
 H         -68.674339     -186.549820      -61.357716
 H         -70.042435     -188.557953      -60.839722
 H         -71.686844     -188.657227      -61.203354
 H         -71.424072     -186.180679      -62.141106
 H         -71.026070     -186.299118      -60.484921
