20
 generated by VMD
 C         -40.528126     -118.833473      -35.552795
 N         -39.601395     -118.433357      -35.020073
 H         -43.693790     -116.944229      -35.993999
 H         -41.413315     -119.302124      -36.079712
 C         -44.017181     -117.067596      -37.018322
 C         -43.010757     -117.443771      -38.025894
 C         -45.196808     -116.226463      -37.567097
 C         -43.631920     -118.269104      -39.183048
 C         -45.963295     -117.131462      -38.598167
 C         -44.967018     -117.585091      -39.662285
 H         -42.262859     -118.136314      -37.702717
 H         -42.414375     -116.601311      -38.336605
 H         -45.751625     -116.021622      -36.688358
 H         -44.721870     -115.219406      -37.917374
 H         -43.823971     -119.333389      -38.839993
 H         -43.136440     -118.274452      -40.121723
 H         -46.702156     -116.486511      -39.065487
 H         -46.403976     -117.931717      -37.841805
 H         -45.532730     -118.254578      -40.316116
 H         -44.670044     -116.563690      -40.263588
