20
 generated by VMD
 C         -70.735649     -181.788177      -64.034821
 N         -69.859077     -182.464615      -63.758850
 H         -68.726334     -180.906143      -61.310974
 H         -71.577347     -181.192596      -64.354858
 C         -67.662262     -180.744888      -61.104465
 C         -66.833549     -181.836899      -60.600468
 C         -67.340767     -179.352173      -60.678501
 C         -65.409607     -181.520065      -60.949097
 C         -65.822853     -179.058334      -60.726501
 C         -64.930885     -180.206085      -60.268318
 H         -67.027451     -182.758896      -61.215084
 H         -66.868690     -182.072128      -59.420700
 H         -67.912384     -178.645050      -61.225174
 H         -67.757385     -179.456955      -59.619091
 H         -65.119980     -181.446259      -61.985653
 H         -64.743988     -182.339676      -60.723324
 H         -65.699486     -178.223541      -60.038097
 H         -65.578407     -178.561539      -61.693207
 H         -63.960621     -180.091461      -60.641987
 H         -64.866859     -180.197784      -59.109386
