20
 generated by VMD
 C         -13.391404      -28.743971       -6.531513
 N         -13.170677      -28.808271       -7.619954
 H         -11.983649      -30.696213       -4.912989
 H         -10.683036      -29.687201       -4.469090
 C         -10.943007      -30.750847       -4.611539
 C         -10.131175      -31.523445       -5.661534
 C         -10.884728      -31.496817       -3.279149
 C          -8.685682      -31.823576       -5.119581
 C          -9.507242      -31.557819       -2.679915
 C          -8.609468      -32.330379       -3.664840
 H         -10.190755      -30.931541       -6.514346
 H         -10.505588      -32.538658       -5.934224
 H         -11.493983      -30.976105       -2.565518
 H         -11.326622      -32.468231       -3.365987
 H          -8.074343      -30.944717       -5.275232
 H          -8.312258      -32.609066       -5.748384
 H          -9.514149      -32.089973       -1.660897
 H          -9.144755      -30.576687       -2.491378
 H          -7.575675      -32.139023       -3.258579
 H          -8.772842      -33.423870       -3.573891
