20
 generated by VMD
 C         -58.871819     -151.949127      -48.993038
 N         -59.109219     -152.207321      -50.121857
 H         -56.166359     -150.557938      -48.153770
 H         -58.628418     -151.850662      -47.912251
 C         -55.717270     -150.209473      -49.143021
 C         -54.727665     -151.150421      -49.658566
 C         -55.273785     -148.761581      -49.199978
 C         -54.148613     -150.738983      -51.047226
 C         -54.817158     -148.406982      -50.497448
 C         -53.647629     -149.286819      -51.023483
 H         -55.170532     -152.147507      -49.707973
 H         -53.897156     -151.347839      -48.964287
 H         -56.146812     -148.173859      -48.873306
 H         -54.484287     -148.686157      -48.420815
 H         -54.939846     -150.770569      -51.791969
 H         -53.375122     -151.484283      -51.328629
 H         -54.580456     -147.266022      -50.549534
 H         -55.581470     -148.729599      -51.157192
 H         -53.410999     -148.902023      -52.085709
 H         -52.765820     -149.167007      -50.398159
