20
 generated by VMD
 C         -12.123203      -31.565819       -8.832371
 N         -12.863248      -31.885588       -9.635653
 H         -10.351739      -34.430698       -6.834424
 H         -11.319347      -33.854366       -5.402615
 C         -11.104675      -34.751877       -6.060550
 C         -10.507378      -35.772076       -5.168232
 C         -12.412831      -35.255043       -6.751893
 C         -11.540133      -36.245644       -4.210137
 C         -13.403442      -35.770840       -5.653788
 C         -12.781853      -36.861557       -4.783724
 H          -9.617328      -35.407005       -4.616650
 H         -10.065104      -36.678448       -5.617455
 H         -12.844263      -34.426620       -7.347178
 H         -12.283126      -36.075195       -7.474947
 H         -11.694112      -35.494144       -3.391215
 H         -11.081795      -37.046680       -3.611922
 H         -14.266334      -36.110794       -6.150790
 H         -13.850605      -34.906685       -5.015730
 H         -13.475899      -37.055779       -3.958730
 H         -12.574059      -37.758842       -5.313703
