20
 generated by VMD
 C         -19.364685      -60.609322      -17.841820
 N         -20.064495      -59.654430      -17.844812
 H         -22.798227      -60.039600      -15.943375
 H         -18.757925      -61.493282      -18.061056
 C         -23.112617      -61.035252      -16.028257
 C         -23.405460      -61.689079      -17.398930
 C         -23.548508      -61.695957      -14.810409
 C         -22.549860      -62.957520      -17.282864
 C         -23.105082      -63.181202      -14.945831
 C         -23.253511      -63.871666      -16.275314
 H         -23.199148      -61.042625      -18.213837
 H         -24.375635      -61.934746      -17.683918
 H         -22.989052      -61.288063      -14.024282
 H         -24.618652      -61.594891      -14.528885
 H         -21.413719      -62.819321      -17.128504
 H         -22.588194      -63.417824      -18.310966
 H         -23.600239      -63.784077      -14.176811
 H         -22.002762      -63.071751      -14.829189
 H         -22.798553      -64.822052      -16.270563
 H         -24.302544      -64.058304      -16.582499
