20
 generated by VMD
 C         -67.986290     -185.175323      -67.937469
 N         -67.589272     -185.722321      -66.994087
 H         -69.616135     -185.280655      -64.466255
 H         -68.388512     -184.669907      -68.800720
 C         -69.740723     -185.846603      -63.518192
 C         -70.888451     -185.470276      -62.662792
 C         -69.027107     -187.119949      -63.158939
 C         -70.435448     -185.222412      -61.156178
 C         -68.615234     -187.086838      -61.697433
 C         -69.608620     -186.458572      -60.695068
 H         -71.690231     -186.225159      -62.569721
 H         -71.174873     -184.483322      -62.965591
 H         -69.723206     -187.936340      -63.313606
 H         -68.084084     -187.213455      -63.702187
 H         -71.223885     -184.911346      -60.376530
 H         -69.673439     -184.435196      -61.170479
 H         -67.682404     -186.535065      -61.592396
 H         -68.523079     -188.135742      -61.497871
 H         -70.259636     -187.191925      -60.339516
 H         -69.091072     -185.942093      -59.944427
