20
 generated by VMD
 C         -70.156082     -197.256393      -66.138908
 N         -69.664986     -196.298004      -65.756775
 H         -71.862648     -194.276382      -64.830383
 H         -70.857643     -197.972198      -66.471703
 C         -72.567543     -194.055695      -65.596939
 C         -72.715866     -192.621796      -66.033035
 C         -73.317108     -195.121765      -66.318581
 C         -73.592804     -192.386337      -67.262611
 C         -73.904816     -194.874725      -67.656609
 C         -73.516510     -193.546570      -68.287178
 H         -71.729263     -192.201553      -66.212761
 H         -73.056244     -191.936203      -65.263382
 H         -72.582260     -195.899551      -66.368286
 H         -73.989189     -195.693390      -65.647881
 H         -73.419159     -191.380173      -67.647110
 H         -74.667114     -192.429565      -66.987175
 H         -74.981339     -194.819916      -67.505440
 H         -73.771286     -195.747971      -68.351929
 H         -72.435341     -193.458817      -68.723991
 H         -74.142677     -193.352600      -69.079712
