20
 generated by VMD
 C          -9.330153      -24.715401        0.903473
 N          -9.965259      -25.373755        1.537898
 H          -6.757804      -23.281343       -0.638588
 H          -8.314360      -22.606077       -1.455407
 C          -7.285593      -23.018948       -1.611553
 C          -7.436630      -24.382483       -2.359507
 C          -6.525031      -21.980293       -2.457055
 C          -8.047727      -24.186146       -3.769930
 C          -7.063000      -21.837997       -3.846526
 C          -7.229432      -23.151690       -4.625226
 H          -8.054697      -25.138351       -1.723847
 H          -6.449717      -24.896639       -2.358195
 H          -6.519085      -20.999359       -1.998089
 H          -5.473739      -22.229820       -2.628192
 H          -9.121597      -23.946007       -3.707186
 H          -8.132428      -25.170866       -4.339566
 H          -6.367594      -21.196411       -4.410100
 H          -8.030628      -21.269291       -3.826909
 H          -7.774875      -22.957106       -5.505446
 H          -6.255790      -23.577682       -4.859921
