20
 generated by VMD
 C         -11.600451      -41.512558       -6.820600
 N         -11.461960      -42.405632       -6.191650
 H         -14.631988      -42.393711       -8.227888
 H         -15.180966      -41.371010       -9.543764
 C         -15.320710      -42.434437       -9.218638
 C         -16.782148      -42.671803       -8.855045
 C         -14.766540      -43.436333      -10.212171
 C         -17.630690      -42.501732      -10.153157
 C         -15.541309      -43.472038      -11.512745
 C         -17.086599      -43.350948      -11.310640
 H         -17.116880      -41.898563       -8.138327
 H         -16.964760      -43.734676       -8.468975
 H         -13.696923      -43.211594      -10.428430
 H         -14.939846      -44.475853       -9.780033
 H         -17.589033      -41.449581      -10.472243
 H         -18.616587      -42.770897       -9.802762
 H         -15.280634      -44.314102      -12.112355
 H         -15.205482      -42.629585      -12.181634
 H         -17.615986      -43.183731      -12.235440
 H         -17.335188      -44.410614      -11.125131
