20
 generated by VMD
 C         -19.487722      -58.134300      -17.172314
 N         -19.252037      -58.666912      -18.152756
 H         -22.980911      -59.618572      -16.470171
 H         -19.837606      -57.720142      -16.176466
 C         -22.978752      -60.664463      -16.128378
 C         -23.854759      -61.634163      -16.948463
 C         -22.178766      -61.067036      -14.965787
 C         -23.410246      -63.053062      -16.911337
 C         -21.982851      -62.593212      -14.763943
 C         -23.110634      -63.393917      -15.433979
 H         -24.125502      -61.302872      -17.984358
 H         -24.890459      -61.603054      -16.317375
 H         -21.128817      -60.618465      -15.060104
 H         -22.847687      -60.724888      -14.157851
 H         -22.518311      -63.215355      -17.538185
 H         -24.126740      -63.772842      -17.418400
 H         -22.174732      -62.705482      -13.637005
 H         -21.005411      -62.947353      -15.193172
 H         -22.806051      -64.451118      -15.403480
 H         -23.978199      -63.341850      -14.830543
