20
 generated by VMD
 C         -55.909180     -149.154785      -45.823410
 N         -55.564579     -149.976624      -45.041897
 H         -54.594913     -148.162857      -48.371620
 H         -56.038414     -148.345993      -46.571037
 C         -54.171417     -147.329773      -48.836346
 C         -53.132835     -147.401016      -49.830620
 C         -54.774113     -146.004700      -48.514660
 C         -53.541187     -146.696777      -51.068413
 C         -55.251640     -145.410812      -49.844704
 C         -54.079666     -145.299118      -50.807178
 H         -52.935822     -148.366272      -50.131050
 H         -52.245708     -147.027573      -49.319164
 H         -55.622105     -146.249222      -47.878201
 H         -54.032642     -145.332932      -47.985245
 H         -54.425049     -147.213089      -51.536949
 H         -52.707375     -146.745773      -51.765724
 H         -55.849354     -144.516876      -49.660954
 H         -56.071213     -145.990891      -50.277489
 H         -54.305935     -144.713303      -51.740002
 H         -53.185055     -144.805496      -50.474922
