20
 generated by VMD
 C         -49.333294     -127.519615      -39.005730
 N         -50.028122     -126.862274      -38.339825
 H         -47.050385     -125.335464      -40.066532
 H         -48.719471     -128.140533      -39.679977
 C         -46.101818     -124.812805      -40.493938
 C         -44.776646     -125.390556      -40.221523
 C         -46.354294     -123.401535      -40.790253
 C         -43.681095     -124.736908      -41.033985
 C         -45.177891     -122.751045      -41.518719
 C         -43.713367     -123.154633      -41.092686
 H         -44.822598     -126.520859      -40.486343
 H         -44.523945     -125.359909      -39.150688
 H         -47.311275     -123.408897      -41.316311
 H         -46.429981     -122.818680      -39.870319
 H         -43.743614     -125.177040      -42.009857
 H         -42.742809     -125.059837      -40.630322
 H         -45.218636     -121.637535      -41.610283
 H         -45.306324     -123.242661      -42.507523
 H         -42.956882     -122.813606      -41.751801
 H         -43.349075     -122.817070      -40.080383
