20
 generated by VMD
 C         -57.810848     -166.285156      -56.372940
 N         -58.285545     -167.003265      -55.636173
 H         -60.616482     -165.340759      -54.587261
 H         -57.457043     -165.520126      -57.011951
 C         -61.517551     -165.551712      -55.181072
 C         -61.745918     -166.743530      -56.013168
 C         -62.421597     -164.348465      -55.434803
 C         -63.227310     -167.208054      -56.016788
 C         -63.931107     -164.683411      -55.651958
 C         -64.140442     -165.995621      -56.563774
 H         -61.206280     -167.571640      -55.662682
 H         -61.395657     -166.412186      -57.100460
 H         -62.392319     -163.486267      -54.655357
 H         -62.078056     -163.883636      -56.340668
 H         -63.573860     -167.582108      -55.030518
 H         -63.255859     -168.104996      -56.721485
 H         -64.434288     -163.809189      -56.069271
 H         -64.323746     -164.988419      -54.564655
 H         -65.173477     -166.231934      -56.576122
 H         -63.884686     -165.700821      -57.545040
