20
 generated by VMD
 C         -21.981529      -55.508194      -17.550392
 N         -21.094961      -55.800747      -18.266191
 H         -21.575537      -56.965633      -14.278674
 H         -22.662497      -55.116844      -16.855017
 C         -21.452892      -58.018837      -14.319414
 C         -21.406443      -58.823601      -13.117985
 C         -21.258762      -58.771969      -15.655384
 C         -20.947601      -60.246315      -13.353164
 C         -20.297962      -59.918678      -15.682637
 C         -19.827520      -60.403210      -14.308616
 H         -22.321651      -58.813255      -12.579917
 H         -20.718887      -58.249641      -12.469329
 H         -22.259293      -59.145977      -16.018358
 H         -20.902109      -58.042427      -16.425032
 H         -21.780422      -60.867542      -13.768628
 H         -20.761127      -60.739628      -12.342977
 H         -19.457216      -59.684017      -16.314680
 H         -20.746351      -60.724773      -16.288927
 H         -19.375988      -61.331894      -14.375120
 H         -19.084383      -59.677643      -14.022225
