20
 generated by VMD
 C         -79.434784     -204.972092      -70.867165
 N         -80.558571     -205.374802      -70.865669
 H         -77.006943     -203.370209      -69.344536
 H         -78.429680     -204.547531      -70.992973
 C         -75.905525     -203.097290      -69.449913
 C         -75.487320     -201.868866      -70.222511
 C         -74.913773     -204.284805      -69.189041
 C         -74.015991     -201.663727      -70.463737
 C         -73.558647     -203.626038      -68.938522
 C         -73.224884     -203.020218      -70.263931
 H         -75.911942     -201.047256      -69.579010
 H         -76.044891     -201.837341      -71.179298
 H         -75.179230     -204.768250      -68.282616
 H         -74.839546     -204.963608      -70.010628
 H         -73.498016     -200.862167      -69.880875
 H         -73.889709     -201.326614      -71.553314
 H         -72.885262     -204.403870      -68.676132
 H         -73.516823     -202.738052      -68.166252
 H         -72.121674     -202.887360      -70.182777
 H         -73.481148     -203.656708      -71.081566
