20
 generated by VMD
 C         -38.476871      -98.757668      -27.719007
 N         -38.067272      -99.489220      -26.932093
 H         -37.285728      -97.594315      -30.397013
 H         -38.819427      -97.929039      -28.373400
 C         -36.281582      -97.435814      -30.575769
 C         -35.511700      -97.976257      -31.854036
 C         -35.650520      -96.644386      -29.485994
 C         -34.529785      -96.944725      -32.251801
 C         -34.276531      -96.028862      -29.817389
 C         -33.594677      -96.530624      -31.159527
 H         -36.033787      -98.231590      -32.750271
 H         -34.919468      -98.878876      -31.480141
 H         -36.311504      -95.812965      -29.337790
 H         -35.656124      -97.166580      -28.518496
 H         -35.064888      -96.060272      -32.616924
 H         -33.798191      -97.401863      -33.050152
 H         -33.583015      -96.203827      -28.931894
 H         -34.400387      -94.963219      -29.821743
 H         -32.823105      -95.808998      -31.458519
 H         -33.054745      -97.480324      -31.009281
