20
 generated by VMD
 C         -57.013584     -163.686081      -56.721745
 N         -57.246540     -162.726715      -57.281078
 H         -59.970989     -163.797440      -54.425617
 H         -56.894016     -164.633362      -56.187695
 C         -60.763512     -164.573151      -54.625443
 C         -61.560493     -165.197205      -53.484188
 C         -61.543690     -164.680252      -55.931850
 C         -62.988335     -164.569458      -53.271484
 C         -62.786865     -163.841492      -55.797985
 C         -63.764099     -164.210785      -54.577988
 H         -60.874935     -165.257278      -52.577194
 H         -61.635754     -166.346069      -53.660740
 H         -60.882107     -164.171494      -56.739731
 H         -61.654362     -165.732498      -56.245388
 H         -62.778141     -163.614868      -52.724491
 H         -63.622162     -165.294617      -52.619072
 H         -63.411266     -163.827316      -56.731575
 H         -62.521935     -162.658417      -55.839352
 H         -64.375580     -163.343552      -54.376076
 H         -64.320091     -165.032288      -54.848072
