20
 generated by VMD
 C         -60.827736     -153.287323      -52.369442
 N         -60.781441     -153.048477      -51.201389
 H         -57.391754     -154.079834      -50.598991
 H         -60.819443     -153.507416      -53.420444
 C         -56.550327     -153.397446      -50.532780
 C         -55.567055     -153.632141      -49.498955
 C         -56.543812     -152.126236      -51.379189
 C         -54.190094     -153.226166      -49.860107
 C         -55.143852     -151.584351      -51.628212
 C         -54.069588     -151.754898      -50.547832
 H         -55.580105     -154.720734      -49.334972
 H         -55.711109     -153.038559      -48.633278
 H         -57.140446     -152.147659      -52.284241
 H         -57.021072     -151.313690      -50.766560
 H         -53.719120     -153.988174      -50.538387
 H         -53.543091     -153.183960      -49.030243
 H         -55.201664     -150.572937      -51.955288
 H         -54.765862     -152.098480      -52.471027
 H         -53.111008     -151.756165      -50.924438
 H         -54.100708     -150.956650      -49.754543
