20
 generated by VMD
 C         -72.710770     -199.240799      -65.499329
 N         -71.985489     -199.719696      -64.730186
 H         -71.227592     -196.070190      -67.208496
 H         -73.187675     -198.609207      -66.275078
 C         -72.152855     -195.725830      -67.655624
 C         -72.834442     -194.468964      -67.198265
 C         -72.592796     -196.408691      -68.968063
 C         -74.148178     -194.278976      -67.875229
 C         -74.097961     -196.658676      -68.901550
 C         -74.945694     -195.552170      -68.134171
 H         -72.332985     -193.547379      -67.371872
 H         -72.752853     -194.544495      -66.055115
 H         -72.418182     -195.806702      -69.810150
 H         -72.012100     -197.293777      -69.130058
 H         -73.894714     -193.776398      -68.861763
 H         -74.656197     -193.469681      -67.399384
 H         -74.406914     -197.609039      -68.538933
 H         -74.453293     -196.646683      -69.972954
 H         -75.888283     -195.314407      -68.399155
 H         -75.306992     -195.979004      -67.102821
