20
 generated by VMD
 C         -79.630737     -206.845444      -74.186935
 N         -80.457069     -207.420151      -74.763763
 H         -76.644630     -207.771240      -73.259979
 H         -78.811340     -206.230087      -73.774086
 C         -76.632568     -207.680710      -72.135147
 C         -75.344795     -207.343445      -71.420914
 C         -77.731705     -208.489258      -71.517883
 C         -75.757133     -207.128448      -69.974075
 C         -77.779953     -208.528412      -70.050140
 C         -76.417946     -208.289612      -69.349602
 H         -74.941063     -206.337509      -71.594398
 H         -74.587189     -208.163528      -71.552628
 H         -78.700516     -208.231247      -71.832855
 H         -77.598572     -209.502029      -71.915428
 H         -76.504303     -206.326614      -69.895050
 H         -74.966003     -206.725220      -69.340836
 H         -78.168900     -209.486267      -69.720795
 H         -78.535042     -207.777969      -69.663216
 H         -76.661263     -208.337280      -68.208214
 H         -75.780334     -209.171951      -69.403419
