20
 generated by VMD
 C          -7.065151      -23.130119        2.594536
 N          -6.059189      -22.661442        2.788276
 H          -6.345140      -20.987286       -0.159522
 H          -7.827685      -21.577291       -0.564273
 C          -6.972550      -21.127516       -1.041780
 C          -6.282126      -22.015272       -2.045076
 C          -7.256726      -19.784872       -1.651355
 C          -7.061689      -22.132729       -3.354760
 C          -8.080600      -19.853954       -2.936596
 C          -7.388457      -20.740055       -3.959288
 H          -6.084413      -23.034851       -1.660317
 H          -5.249486      -21.651960       -2.207290
 H          -7.873646      -19.327515       -0.839103
 H          -6.333090      -19.284746       -1.862044
 H          -7.980498      -22.635412       -3.115339
 H          -6.453651      -22.657902       -4.093377
 H          -7.997239      -18.807882       -3.212620
 H          -9.107495      -20.207321       -2.803494
 H          -8.028814      -20.825434       -4.828605
 H          -6.436608      -20.378494       -4.273349
