20
 generated by VMD
 C         -60.026028     -156.622971      -55.675858
 N         -60.925198     -156.040054      -56.154419
 H         -59.729736     -157.560562      -52.801998
 H         -59.263767     -157.166122      -55.076969
 C         -58.766994     -157.927460      -52.884071
 C         -57.628307     -156.995560      -52.626152
 C         -58.501869     -159.319763      -52.374695
 C         -57.400925     -157.018661      -51.160446
 C         -58.177849     -159.359406      -50.889343
 C         -57.100563     -158.289658      -50.551964
 H         -57.773624     -156.020065      -53.026073
 H         -56.580441     -157.252548      -53.004704
 H         -59.375916     -159.900452      -52.661777
 H         -57.653492     -159.723328      -52.926601
 H         -58.346024     -156.733383      -50.643040
 H         -56.600201     -156.382156      -51.029732
 H         -57.931816     -160.405014      -50.589111
 H         -59.138432     -158.953354      -50.334698
 H         -57.216537     -158.041412      -49.409138
 H         -56.181252     -158.629028      -50.882271
