20
 generated by VMD
 C         -60.210461     -156.497940      -55.658852
 N         -60.832020     -155.620560      -55.968746
 H         -59.782188     -157.723694      -52.973534
 H         -59.598877     -157.303436      -55.348759
 C         -58.672115     -157.972076      -52.729630
 C         -57.797592     -156.803604      -52.623302
 C         -58.311089     -159.311356      -52.178158
 C         -57.322674     -156.579163      -51.155174
 C         -57.918438     -159.088165      -50.753910
 C         -56.832245     -157.969574      -50.576653
 H         -58.301113     -155.880646      -52.849865
 H         -56.880108     -157.049744      -53.220783
 H         -59.141602     -159.983994      -52.189178
 H         -57.488510     -159.772461      -52.798359
 H         -58.115108     -156.239914      -50.533550
 H         -56.693459     -155.748016      -51.195312
 H         -57.591137     -160.075348      -50.383247
 H         -58.725849     -158.868256      -50.001534
 H         -56.488354     -157.971588      -49.495148
 H         -55.901745     -158.362152      -50.998363
