20
 generated by VMD
 C         -58.551636     -151.614960      -49.618736
 N         -59.175579     -152.195084      -48.849762
 H         -55.830723     -149.903244      -48.017700
 H         -57.955200     -151.154678      -50.340389
 C         -55.088501     -149.525742      -48.688232
 C         -54.183632     -150.574448      -49.405743
 C         -54.871368     -147.986984      -48.910229
 C         -54.241844     -150.270645      -50.925404
 C         -54.822727     -147.754974      -50.463528
 C         -53.853638     -148.802185      -51.182816
 H         -54.445496     -151.595261      -49.175323
 H         -53.113380     -150.689270      -49.077122
 H         -55.671513     -147.446945      -48.233337
 H         -53.851593     -147.748413      -48.472492
 H         -55.143181     -150.485352      -51.537823
 H         -53.421097     -150.841858      -51.392597
 H         -54.451130     -146.743011      -50.604671
 H         -55.941093     -147.926895      -50.758526
 H         -53.802135     -148.617981      -52.331173
 H         -52.846390     -148.675003      -50.778450
