20
 generated by VMD
 C         -77.482002     -202.934723      -69.242050
 N         -77.587791     -203.748962      -68.458099
 H         -75.073959     -201.550507      -67.176735
 H         -77.453392     -202.115814      -70.002960
 C         -74.489021     -201.105804      -68.061462
 C         -75.243034     -199.983292      -68.621635
 C         -73.792686     -202.116913      -68.881752
 C         -74.535751     -199.280991      -69.711166
 C         -73.210938     -201.446808      -70.134644
 C         -74.181725     -200.527222      -70.692368
 H         -75.442131     -199.326630      -67.710335
 H         -76.218285     -200.325684      -68.899223
 H         -72.972984     -202.442429      -68.333588
 H         -74.529877     -202.886627      -69.153603
 H         -73.622231     -198.981506      -69.325020
 H         -75.054695     -198.557175      -70.311470
 H         -72.897346     -202.342606      -70.719719
 H         -72.251648     -200.902313      -69.954620
 H         -73.835571     -199.988251      -71.635536
 H         -75.120461     -200.925980      -70.917023
