20
 generated by VMD
 C         -68.347290     -194.072144      -66.055870
 N         -67.862129     -194.543686      -65.094612
 H         -70.613312     -191.555252      -67.262794
 H         -68.817619     -193.726089      -66.929398
 C         -71.481277     -191.581314      -66.614113
 C         -72.330124     -190.343277      -66.514961
 C         -71.730980     -192.777847      -65.742973
 C         -73.814445     -190.602493      -66.143051
 C         -72.918152     -192.505112      -64.756699
 C         -74.164970     -191.964874      -65.558083
 H         -72.301392     -189.738541      -67.344414
 H         -71.904961     -189.729279      -65.654099
 H         -71.681122     -193.660736      -66.407722
 H         -70.771736     -193.009186      -65.174797
 H         -74.400276     -190.661575      -67.077507
 H         -74.344208     -189.750443      -65.768982
 H         -72.542984     -191.850952      -63.898781
 H         -73.210442     -193.432999      -64.295708
 H         -74.436180     -192.633209      -66.313652
 H         -75.119446     -191.844727      -64.860725
