20
 generated by VMD
 C         -40.821087     -119.286995      -35.001850
 N         -39.767998     -118.812836      -35.266621
 H         -43.688847     -117.090645      -36.157177
 H         -41.589180     -119.962624      -34.831402
 C         -43.987640     -117.171043      -37.165977
 C         -43.044575     -117.595123      -38.200550
 C         -45.340229     -116.581039      -37.621059
 C         -43.763603     -118.382751      -39.371578
 C         -45.921772     -117.361771      -38.794800
 C         -44.990047     -117.673691      -39.955704
 H         -42.294743     -118.197037      -37.695210
 H         -42.362251     -116.830841      -38.649284
 H         -46.068481     -116.680870      -36.706333
 H         -45.274551     -115.524551      -37.802521
 H         -44.174263     -119.374245      -39.214268
 H         -42.959553     -118.607544      -40.135956
 H         -46.832397     -116.832672      -38.954323
 H         -46.208477     -118.277985      -38.362972
 H         -45.552006     -118.323296      -40.756725
 H         -44.642372     -116.819244      -40.496361
