20
 generated by VMD
 C         -47.866920     -134.794815      -46.424580
 N         -47.874691     -134.606705      -47.588371
 H         -50.576332     -134.692215      -45.285843
 H         -48.121300     -135.153549      -45.467739
 C         -50.874912     -135.448395      -44.647560
 C         -51.364632     -136.686447      -45.341503
 C         -51.167927     -135.286240      -43.162224
 C         -51.238815     -137.990417      -44.517517
 C         -51.004032     -136.537354      -42.362122
 C         -51.605904     -137.737991      -43.039276
 H         -50.769787     -136.859055      -46.323864
 H         -52.363605     -136.464508      -45.620728
 H         -50.564888     -134.430313      -42.932346
 H         -52.141754     -134.936279      -43.008919
 H         -50.221794     -138.353333      -44.429260
 H         -51.840656     -138.871750      -44.897106
 H         -51.458942     -136.498535      -41.287281
 H         -49.890892     -136.684799      -42.222828
 H         -51.423656     -138.514557      -42.464031
 H         -52.659176     -137.558289      -43.081131
