20
 generated by VMD
 C         -79.819252     -206.966385      -73.459976
 N         -79.906113     -206.035568      -74.105171
 H         -78.297920     -205.236298      -70.364235
 H         -79.459076     -207.720261      -72.836853
 C         -77.266045     -205.473297      -70.304031
 C         -76.208450     -204.660172      -70.900154
 C         -76.909492     -206.694778      -69.618439
 C         -74.750252     -204.821854      -70.359749
 C         -75.387512     -206.964844      -69.192802
 C         -74.404449     -206.304565      -70.147652
 H         -76.564323     -203.612946      -70.724457
 H         -76.235390     -204.834961      -71.921364
 H         -77.598152     -206.750137      -68.742714
 H         -77.090401     -207.606506      -70.119362
 H         -74.739998     -204.207611      -69.458466
 H         -74.173607     -204.287323      -71.100044
 H         -75.265625     -207.994675      -69.083549
 H         -75.110802     -206.672607      -68.120483
 H         -73.431686     -206.490005      -69.666100
 H         -74.282806     -206.697006      -71.155579
