20
 generated by VMD
 C         -79.799728     -205.380600      -71.663757
 N         -79.849792     -206.572327      -71.564964
 H         -76.019379     -204.301422      -72.042473
 H         -79.570251     -204.365845      -71.933434
 C         -76.213722     -204.034256      -70.999397
 C         -75.480194     -202.871597      -70.455788
 C         -76.350258     -205.070831      -70.041618
 C         -73.988037     -203.308624      -70.308022
 C         -75.114815     -205.254318      -69.198608
 C         -73.845055     -204.706955      -69.762306
 H         -75.781723     -202.683929      -69.376755
 H         -75.574661     -201.928772      -70.952454
 H         -77.081367     -204.890274      -69.301208
 H         -76.605461     -205.952301      -70.577919
 H         -73.529976     -202.701599      -69.465324
 H         -73.273239     -203.245987      -71.192139
 H         -75.074760     -206.285706      -68.802567
 H         -75.205521     -204.588974      -68.328552
 H         -73.167488     -204.792419      -68.854591
 H         -73.436989     -205.402664      -70.500694
