20
 generated by VMD
 C          -2.165096       -8.561481        0.345446
 N          -1.860235       -9.053574       -0.648320
 H          -2.826641      -10.033178        2.761277
 H          -1.949253      -11.229845        3.664649
 C          -2.872924      -10.997760        3.140193
 C          -2.987875      -12.025263        1.976416
 C          -4.034458      -11.017741        4.126956
 C          -3.303431      -13.443907        2.508969
 C          -4.240213      -12.488128        4.641309
 C          -4.445103      -13.579129        3.501709
 H          -2.059089      -12.133438        1.376978
 H          -3.791585      -11.785814        1.320139
 H          -3.728485      -10.339338        4.958901
 H          -4.918782      -10.641741        3.635803
 H          -2.410480      -13.872543        2.973136
 H          -3.513003      -14.108801        1.659800
 H          -5.081578      -12.624283        5.396702
 H          -3.318666      -12.816427        5.187100
 H          -4.477027      -14.588202        3.993802
 H          -5.413367      -13.296445        3.043513
