20
 generated by VMD
 C         -60.936451     -155.083572      -52.992001
 N         -60.937576     -154.272186      -52.220337
 H         -57.924774     -154.360809      -52.709808
 H         -60.811516     -155.838989      -53.706478
 C         -57.112129     -154.179413      -52.023720
 C         -57.428146     -154.106415      -50.514439
 C         -55.764065     -153.757370      -52.551590
 C         -56.216217     -154.575302      -49.611172
 C         -54.731323     -154.125565      -51.603813
 C         -55.034389     -153.803329      -50.092598
 H         -58.314346     -154.684662      -50.383347
 H         -57.575535     -153.093796      -50.105957
 H         -55.696838     -154.146637      -53.560360
 H         -55.771873     -152.685654      -52.769260
 H         -55.787083     -155.624954      -49.712063
 H         -56.313351     -154.439331      -48.506771
 H         -53.818161     -153.589996      -51.774879
 H         -54.528183     -155.229019      -51.768955
 H         -54.179779     -154.094208      -49.506702
 H         -55.108475     -152.664291      -49.913116
