20
 generated by VMD
 C         -46.720295     -124.711082      -37.703705
 N         -46.909679     -124.532410      -36.576283
 H         -44.898758     -122.581062      -37.741959
 H         -46.349838     -124.745392      -38.720093
 C         -44.818897     -122.345375      -38.864788
 C         -43.469864     -122.255875      -39.586784
 C         -45.882225     -121.410805      -39.426826
 C         -43.730186     -122.527855      -41.059311
 C         -46.062019     -121.815369      -40.876820
 C         -44.768467     -121.542557      -41.613083
 H         -42.844067     -122.915840      -39.051048
 H         -43.029850     -121.291573      -39.541931
 H         -46.824924     -121.556183      -38.980103
 H         -45.664738     -120.324570      -39.327503
 H         -43.969994     -123.569359      -41.202648
 H         -42.817730     -122.504662      -41.750309
 H         -46.651520     -121.042755      -41.402370
 H         -46.496964     -122.852798      -41.172455
 H         -44.852962     -121.883820      -42.662846
 H         -44.471039     -120.494095      -41.514622
