20
 generated by VMD
 C         -59.410793     -158.416534      -57.444077
 N         -58.473793     -158.363449      -58.046356
 H         -60.109470     -158.826416      -53.990833
 H         -60.342106     -158.523010      -56.893585
 C         -59.793697     -159.636398      -53.300419
 C         -58.578472     -159.602371      -52.444050
 C         -60.683247     -160.824875      -53.419247
 C         -58.607681     -160.547729      -51.204731
 C         -60.695576     -161.531555      -52.125053
 C         -59.325359     -161.819855      -51.582832
 H         -58.510609     -158.596436      -52.179420
 H         -57.677856     -159.803452      -52.987030
 H         -61.671768     -160.525177      -53.783195
 H         -60.351021     -161.709518      -54.056053
 H         -59.191620     -160.149368      -50.396217
 H         -57.610813     -160.978470      -51.019760
 H         -61.261208     -162.486740      -52.104588
 H         -61.229248     -160.829010      -51.404823
 H         -59.606308     -162.266815      -50.654747
 H         -58.732807     -162.389633      -52.240227
