20
 generated by VMD
 C         -48.068073     -140.165924      -45.847664
 N         -46.944279     -139.865417      -45.674698
 H         -51.045650     -139.268875      -45.160740
 H         -49.118374     -140.275894      -46.054085
 C         -52.029251     -139.255096      -45.603165
 C         -52.175964     -139.440811      -47.135128
 C         -53.183468     -139.173477      -44.780922
 C         -53.200287     -140.528412      -47.405239
 C         -54.112869     -140.351501      -45.047268
 C         -54.434563     -140.354630      -46.567005
 H         -51.264832     -139.609299      -47.656910
 H         -52.421585     -138.446182      -47.531990
 H         -53.016167     -139.141937      -43.695332
 H         -53.564323     -138.163452      -44.914803
 H         -52.683975     -141.539963      -47.497448
 H         -53.618946     -140.214554      -48.439041
 H         -54.994316     -140.259094      -44.516083
 H         -53.641373     -141.332916      -44.901115
 H         -55.133068     -141.225159      -46.908089
 H         -54.865868     -139.438919      -46.950455
