20
 generated by VMD
 C         -49.305019     -132.531036      -46.855900
 N         -50.300465     -131.885269      -47.159382
 H         -47.396427     -134.425674      -43.939743
 H         -48.503685     -132.904480      -46.252743
 C         -48.386612     -134.550629      -43.522289
 C         -49.089378     -135.852310      -43.908787
 C         -49.299976     -133.414215      -43.073818
 C         -49.970406     -136.357773      -42.675301
 C         -50.091690     -133.868668      -41.897003
 C         -50.805367     -135.188782      -42.153515
 H         -48.339622     -136.647263      -44.200275
 H         -49.674171     -135.649872      -44.743572
 H         -48.769459     -132.450027      -42.804047
 H         -49.990685     -133.192368      -43.878716
 H         -49.148006     -136.602875      -42.056984
 H         -50.465687     -137.251938      -43.022850
 H         -50.844608     -133.088699      -41.862751
 H         -49.655293     -133.936630      -40.843868
 H         -51.316696     -135.637207      -41.208542
 H         -51.719227     -135.210693      -42.773708
