20
 generated by VMD
 C         -68.851379     -193.881012      -64.472572
 N         -68.446884     -194.179657      -65.534355
 H         -71.064125     -193.792374      -67.758087
 H         -69.461578     -193.567947      -63.684074
 C         -71.849724     -193.245514      -67.266411
 C         -71.547066     -192.045242      -66.455002
 C         -73.283623     -193.748062      -67.279495
 C         -72.761375     -191.329758      -65.858261
 C         -74.299545     -193.109390      -66.447586
 C         -73.695656     -192.359695      -65.278656
 H         -71.074379     -191.146744      -66.972359
 H         -70.871704     -192.181061      -65.688904
 H         -73.520622     -193.945251      -68.376053
 H         -73.227234     -194.868500      -67.042229
 H         -73.267570     -190.675079      -66.582214
 H         -72.513885     -190.636536      -65.027618
 H         -75.012802     -193.895599      -66.028633
 H         -74.937828     -192.422668      -67.022858
 H         -74.511353     -191.840973      -64.616127
 H         -73.110596     -192.953415      -64.569893
