20
 generated by VMD
 C         -12.529663      -28.109591       -5.486989
 N         -13.165641      -28.314781       -6.385811
 H         -11.948987      -31.615408       -4.483132
 H         -11.270498      -30.161940       -5.110190
 C         -11.015141      -31.062824       -4.567417
 C          -9.910789      -31.907793       -5.292746
 C         -10.628607      -30.748655       -3.171267
 C          -8.509658      -31.291389       -5.209471
 C          -9.384889      -29.937105       -3.194884
 C          -8.185155      -30.666019       -3.823840
 H         -10.184575      -32.037048       -6.346838
 H         -10.084117      -32.953857       -4.856455
 H         -11.492595      -30.186577       -2.732087
 H         -10.517981      -31.616045       -2.523126
 H          -8.413310      -30.437664       -5.980005
 H          -7.769062      -32.039730       -5.591889
 H          -9.206112      -29.686281       -2.176306
 H          -9.469032      -28.981628       -3.778151
 H          -7.323421      -29.928596       -3.879479
 H          -7.730091      -31.347466       -3.099580
