20
 generated by VMD
 C         -49.535221     -141.602127      -45.781994
 N         -49.480682     -142.141586      -44.783672
 H         -51.459545     -138.834427      -46.066486
 H         -49.762634     -141.256866      -46.788460
 C         -52.328777     -139.420929      -46.462952
 C         -52.868954     -139.478439      -47.869167
 C         -52.991829     -140.087067      -45.331139
 C         -53.146416     -140.926102      -48.096519
 C         -53.066296     -141.591324      -45.708046
 C         -53.836723     -141.668686      -46.953983
 H         -52.053856     -139.077148      -48.540966
 H         -53.767502     -138.832565      -47.933197
 H         -52.429962     -140.044525      -44.441219
 H         -53.928726     -139.697388      -45.254524
 H         -52.065842     -141.216324      -48.325977
 H         -53.725338     -141.216614      -49.048359
 H         -53.684566     -142.062347      -44.954815
 H         -52.164288     -142.112427      -45.886158
 H         -53.720860     -142.800003      -47.249943
 H         -54.948105     -141.352051      -46.970943
