20
 generated by VMD
 C         -32.208153      -94.807961      -25.444626
 N         -33.337536      -94.938286      -25.149618
 H         -34.071049      -95.000473      -28.330666
 H         -31.277973      -94.601112      -25.833015
 C         -34.244720      -94.067146      -28.765486
 C         -35.626186      -93.556122      -28.663837
 C         -33.413826      -93.481300      -29.856359
 C         -36.004456      -92.098610      -28.941168
 C         -33.587021      -92.013321      -30.118055
 C         -35.102837      -91.710831      -30.223118
 H         -36.216812      -93.753510      -27.783424
 H         -36.170837      -94.124870      -29.497604
 H         -32.390549      -93.714142      -29.594679
 H         -33.627411      -94.086861      -30.755550
 H         -35.637856      -91.583839      -28.023272
 H         -37.040417      -91.815109      -29.179712
 H         -33.028469      -91.760902      -31.009964
 H         -33.030766      -91.283348      -29.444727
 H         -35.226643      -90.618874      -30.467627
 H         -35.601059      -92.450394      -30.962158
