20
 generated by VMD
 C         -11.342540      -34.006424       -8.271711
 N         -10.760834      -34.180054       -9.194914
 H         -11.759031      -37.776161       -7.945910
 H         -12.486467      -37.089378       -6.499115
 C         -12.594590      -37.880241       -7.272468
 C         -12.446058      -39.291718       -6.595290
 C         -13.869420      -37.719479       -8.121531
 C         -13.724319      -39.642731       -5.803047
 C         -15.083294      -37.976955       -7.268456
 C         -15.011645      -39.467892       -6.659686
 H         -11.618077      -39.342880       -5.903375
 H         -12.416372      -40.019180       -7.408226
 H         -13.841140      -36.715034       -8.461307
 H         -13.717414      -38.446156       -8.974641
 H         -13.755029      -38.930252       -4.967134
 H         -13.666459      -40.691978       -5.459761
 H         -15.971006      -37.722561       -7.813511
 H         -15.048396      -37.223709       -6.377983
 H         -15.902411      -39.550800       -6.002355
 H         -15.070169      -40.288403       -7.419169
