20
 generated by VMD
 C         -38.683895     -113.498779      -35.967487
 N         -37.628887     -114.011307      -35.944279
 H         -41.697598     -115.490616      -35.695171
 H         -39.698948     -113.235367      -35.953922
 C         -42.246555     -114.554733      -35.991100
 C         -42.359123     -114.353394      -37.462891
 C         -43.440311     -114.270767      -35.087273
 C         -43.453362     -115.342072      -37.940571
 C         -44.711033     -114.914062      -35.707939
 C         -44.780521     -114.952843      -37.222290
 H         -41.525066     -114.499130      -38.115692
 H         -42.797241     -113.407936      -37.597446
 H         -43.139431     -114.530975      -34.119144
 H         -43.560562     -113.220856      -35.158051
 H         -43.206440     -116.358810      -37.698566
 H         -43.696629     -115.351906      -39.046486
 H         -45.610378     -114.386223      -35.503086
 H         -44.597889     -115.900375      -35.289108
 H         -45.599781     -115.632614      -37.496498
 H         -44.991028     -113.941551      -37.786770
