20
 generated by VMD
 C         -70.292053     -183.380508      -66.002518
 N         -69.269814     -182.861420      -65.931908
 H         -68.628159     -185.111603      -62.965397
 H         -71.203400     -183.871246      -66.124702
 C         -68.337067     -184.314087      -62.280354
 C         -68.255905     -184.790710      -60.868855
 C         -67.779366     -182.942917      -62.648888
 C         -67.348831     -183.880783      -59.883892
 C         -67.144264     -181.964874      -61.711372
 C         -67.463852     -182.375015      -60.268723
 H         -68.044243     -185.880707      -60.828587
 H         -69.187752     -184.789352      -60.396030
 H         -67.126602     -183.159500      -63.426731
 H         -68.643059     -182.350754      -63.069298
 H         -66.251633     -184.100113      -59.997852
 H         -67.609497     -184.016647      -58.859303
 H         -67.243614     -180.913437      -62.075123
 H         -66.051613     -182.136475      -61.659645
 H         -66.878380     -181.854523      -59.639221
 H         -68.423637     -181.881317      -60.054924
