20
 generated by VMD
 C         -78.386421     -209.535828      -76.954971
 N         -78.477020     -209.011200      -78.018494
 H         -78.866020     -210.841736      -73.561394
 H         -78.335808     -210.046204      -75.919083
 C         -78.948631     -211.651047      -72.887589
 C         -77.716797     -212.139221      -72.142792
 C         -80.148735     -212.560440      -72.872337
 C         -78.186623     -212.229568      -70.716515
 C         -80.530327     -213.155197      -71.442711
 C         -79.309761     -213.351410      -70.516624
 H         -76.924751     -211.367249      -72.280098
 H         -77.373352     -213.127625      -72.518875
 H         -81.057289     -212.190842      -73.420380
 H         -79.852219     -213.339676      -73.543419
 H         -78.515556     -211.225403      -70.421547
 H         -77.375648     -212.523209      -70.005539
 H         -80.966621     -214.108536      -71.629890
 H         -81.253044     -212.382645      -70.845749
 H         -79.709244     -213.257492      -69.501404
 H         -78.772987     -214.362854      -70.705856
