20
 generated by VMD
 C         -18.408068      -48.879169       -7.164266
 N         -19.117064      -49.720276       -7.358609
 H         -16.013964      -47.722157      -10.060833
 H         -16.290403      -49.036674      -11.330949
 C         -16.257328      -47.942493      -11.139528
 C         -15.210683      -47.314789      -12.095078
 C         -17.594810      -47.390568      -11.549829
 C         -15.441111      -47.926228      -13.436389
 C         -17.932453      -47.435181      -13.044287
 C         -16.717823      -47.252399      -14.027979
 H         -14.181425      -47.614788      -11.749249
 H         -15.154243      -46.223663      -12.042498
 H         -18.359430      -47.979801      -11.019361
 H         -17.777983      -46.383171      -11.142951
 H         -15.565767      -49.014000      -13.458950
 H         -14.546004      -47.783333      -14.056889
 H         -18.741196      -46.800648      -13.406064
 H         -18.249765      -48.525658      -13.216055
 H         -16.947805      -47.719143      -15.007195
 H         -16.551243      -46.159851      -14.175529
