20
 generated by VMD
 C         -50.070080     -142.944046      -45.331028
 N         -48.907749     -143.230057      -45.356606
 H         -51.905918     -140.019958      -45.704857
 H         -51.111759     -142.596420      -45.118832
 C         -52.625912     -140.669739      -46.170227
 C         -52.056557     -140.973068      -47.538746
 C         -54.137634     -140.627762      -46.058350
 C         -52.916298     -142.120636      -48.297062
 C         -54.791309     -141.755325      -46.739128
 C         -54.357269     -141.843567      -48.142113
 H         -51.061413     -141.361160      -47.594284
 H         -52.138428     -140.062149      -48.067486
 H         -54.345047     -140.645584      -44.955795
 H         -54.647964     -139.736221      -46.579678
 H         -52.671181     -143.032562      -47.912216
 H         -52.693718     -142.098907      -49.309845
 H         -55.842640     -141.557388      -46.643909
 H         -54.628914     -142.764771      -46.425430
 H         -54.943844     -142.522308      -48.627651
 H         -54.595631     -140.974838      -48.642944
