20
 generated by VMD
 C         -59.525780     -157.795898      -56.543610
 N         -58.974659     -158.698624      -56.961231
 H         -60.513088     -157.741882      -53.089737
 H         -60.032925     -156.914001      -56.280590
 C         -59.987213     -158.622681      -52.684528
 C         -58.477959     -158.413101      -52.346298
 C         -60.480347     -159.975845      -53.132561
 C         -57.899330     -159.559265      -51.501114
 C         -59.821365     -160.964722      -52.101700
 C         -58.284866     -160.860184      -51.936577
 H         -58.344376     -157.445999      -51.855125
 H         -57.975132     -158.250092      -53.330135
 H         -61.534286     -160.132446      -52.947281
 H         -60.150612     -160.165222      -54.127655
 H         -58.320946     -159.499664      -50.536179
 H         -56.835926     -159.338867      -51.491367
 H         -60.110279     -161.916885      -52.455441
 H         -60.121433     -160.853821      -51.045380
 H         -57.920914     -161.546753      -51.130814
 H         -57.938293     -161.056503      -52.976391
