20
 generated by VMD
 C         -40.322842      -99.694443      -29.079407
 N         -39.579823     -100.128372      -28.275356
 H         -37.364697      -98.806900      -30.682999
 H         -41.004974      -99.483063      -29.862682
 C         -36.280090      -98.830009      -30.782860
 C         -35.875313      -98.932610      -32.183239
 C         -35.430035      -98.578728      -29.584005
 C         -34.705814      -98.045998      -32.386482
 C         -34.362942      -97.540291      -30.007748
 C         -33.625580      -98.052872      -31.288132
 H         -36.822060      -98.716537      -32.719799
 H         -35.578846      -99.952019      -32.400120
 H         -35.967663      -98.056808      -28.749710
 H         -34.993500      -99.545876      -29.238552
 H         -35.067497      -96.981514      -32.557087
 H         -34.246162      -98.435051      -33.332653
 H         -33.638733      -97.461060      -29.196228
 H         -34.673187      -96.515991      -30.260290
 H         -32.873859      -97.336876      -31.547064
 H         -33.206623      -99.118286      -31.196739
