20
 generated by VMD
 C         -40.406067     -117.920479      -34.706562
 N         -39.424728     -117.380836      -35.042046
 H         -42.213161     -116.429436      -36.777809
 H         -41.096802     -118.737961      -34.303493
 C         -43.082424     -116.682854      -37.313900
 C         -42.809097     -116.900024      -38.810089
 C         -44.507729     -116.239136      -36.821247
 C         -44.007240     -117.550369      -39.548439
 C         -45.602058     -116.942734      -37.596218
 C         -45.367100     -116.929726      -39.138481
 H         -41.868084     -117.523003      -38.935783
 H         -42.541256     -115.902573      -39.321980
 H         -44.564735     -116.276817      -35.772202
 H         -44.547306     -115.124947      -37.067627
 H         -43.916607     -118.583183      -39.356281
 H         -43.836475     -117.381866      -40.550552
 H         -46.639080     -116.390121      -37.460800
 H         -45.683025     -118.066475      -37.345749
 H         -46.223297     -117.503716      -39.747364
 H         -45.321903     -115.870995      -39.372269
