20
 generated by VMD
 C         -32.292931      -95.047447      -25.515810
 N         -33.320801      -95.062126      -25.019564
 H         -33.970551      -94.665222      -27.930479
 H         -31.270609      -94.962677      -25.929167
 C         -34.299061      -93.894043      -28.688166
 C         -35.767410      -93.649292      -28.682659
 C         -33.346909      -93.482132      -29.789690
 C         -35.861130      -92.203644      -29.164261
 C         -33.667336      -92.061592      -30.145832
 C         -35.149235      -91.730011      -30.383112
 H         -36.372910      -93.691574      -27.709852
 H         -36.231472      -94.370369      -29.298466
 H         -32.317490      -93.595108      -29.413374
 H         -33.388889      -94.208366      -30.607843
 H         -35.524891      -91.701500      -28.272337
 H         -36.905117      -91.890305      -29.222570
 H         -33.150208      -91.858788      -31.128731
 H         -33.320210      -91.335175      -29.456238
 H         -35.328098      -90.668915      -30.560812
 H         -35.728378      -92.246437      -31.206657
