20
 generated by VMD
 C          -1.422693      -11.689101        1.578812
 N          -1.102987      -12.351585        0.698821
 H          -4.001947      -12.845337        0.563586
 H          -5.605868      -13.083003        0.900454
 C          -4.667675      -13.626260        0.937924
 C          -4.461095      -13.925204        2.421742
 C          -4.790084      -14.886161        0.185461
 C          -5.643412      -14.655536        2.946261
 C          -5.960098      -15.845786        0.705980
 C          -5.795744      -15.978556        2.247193
 H          -4.277740      -12.942934        3.009071
 H          -3.613931      -14.612326        2.483022
 H          -4.917449      -14.639936       -0.861041
 H          -3.925035      -15.525582        0.307424
 H          -6.533059      -14.034994        2.995265
 H          -5.338436      -14.892370        3.998346
 H          -5.842228      -16.794641        0.157416
 H          -6.899947      -15.380313        0.418446
 H          -6.681956      -16.491978        2.612609
 H          -4.930779      -16.645147        2.477396
