20
 generated by VMD
 C         -28.060669      -73.260452      -18.301292
 N         -28.901936      -73.473946      -17.536671
 H         -25.419657      -72.038559      -18.756264
 H         -27.179604      -73.050575      -18.979389
 C         -25.396038      -71.885468      -19.831345
 C         -24.565151      -72.782669      -20.688992
 C         -25.909689      -70.573586      -20.392719
 C         -25.173351      -73.046089      -21.949781
 C         -26.365795      -70.768013      -21.902939
 C         -25.488270      -71.726974      -22.749571
 H         -24.576763      -73.749138      -20.191156
 H         -23.458252      -72.332123      -20.632900
 H         -26.731672      -70.294388      -19.682575
 H         -25.077314      -69.948456      -20.267900
 H         -26.152021      -73.608772      -21.877293
 H         -24.408796      -73.594414      -22.535528
 H         -26.440538      -69.763329      -22.333902
 H         -27.389385      -71.201859      -21.862316
 H         -25.966904      -71.868217      -23.713137
 H         -24.539997      -71.153198      -22.877485
