20
 generated by VMD
 C         -22.003517      -52.297619      -11.461998
 N         -21.823177      -52.812164      -10.483825
 H         -19.887892      -52.108780      -14.166069
 H         -21.796139      -51.570816      -12.480721
 C         -18.932522      -51.967140      -13.788302
 C         -17.932867      -51.715340      -14.860744
 C         -18.618986      -51.903984      -12.345622
 C         -16.507874      -52.034489      -14.511887
 C         -17.140720      -51.524490      -12.102361
 C         -16.157249      -52.126766      -13.041074
 H         -17.940702      -50.681271      -15.248838
 H         -18.165680      -52.403816      -15.752138
 H         -19.213268      -51.127792      -11.820470
 H         -18.892471      -52.836922      -11.930622
 H         -15.853276      -51.346668      -15.031063
 H         -16.159439      -52.999077      -14.860021
 H         -16.885769      -51.756092      -11.090588
 H         -16.974308      -50.381409      -12.200212
 H         -15.136418      -51.767525      -12.867627
 H         -16.078354      -53.199936      -12.762798
