20
 generated by VMD
 C         -40.403282     -106.979156      -37.738186
 N         -39.313633     -106.628395      -37.852070
 H         -38.684071     -108.154617      -34.451164
 H         -41.397072     -107.266632      -37.347427
 C         -39.367535     -108.759315      -33.809952
 C         -38.828503     -110.162743      -33.437206
 C         -40.749992     -108.862549      -34.289829
 C         -39.691307     -110.694641      -32.200153
 C         -41.693237     -109.542610      -33.303177
 C         -41.150600     -110.828270      -32.632961
 H         -37.707306     -109.951012      -33.058315
 H         -38.748997     -110.753487      -34.398064
 H         -41.077789     -107.900856      -34.441666
 H         -40.670574     -109.410454      -35.235867
 H         -39.631355     -110.030548      -31.422955
 H         -39.350582     -111.715515      -31.863358
 H         -42.768612     -109.660629      -33.668793
 H         -41.803143     -108.769440      -32.540195
 H         -41.914639     -111.068092      -31.732616
 H         -41.183167     -111.608543      -33.335716
