20
 generated by VMD
 C          -9.447627      -24.955462        0.666886
 N         -10.314604      -25.439596        1.192308
 H          -6.495365      -23.245848       -0.695072
 H          -8.044873      -22.678268       -1.246697
 C          -7.075249      -23.141836       -1.598464
 C          -7.321176      -24.456406       -2.275952
 C          -6.399495      -22.107325       -2.613727
 C          -8.093708      -24.312489       -3.558820
 C          -7.165310      -21.945429       -3.912128
 C          -7.459019      -23.327822       -4.549885
 H          -7.795910      -25.076567       -1.571204
 H          -6.421075      -25.012417       -2.496038
 H          -6.303928      -21.106012       -2.133726
 H          -5.414835      -22.525745       -2.776960
 H          -9.156933      -24.010460       -3.383537
 H          -8.141327      -25.302439       -3.992229
 H          -6.564916      -21.394968       -4.657670
 H          -8.075366      -21.392422       -3.709792
 H          -8.198919      -23.144112       -5.396831
 H          -6.490668      -23.697968       -4.912657
