20
 generated by VMD
 C         -74.186859     -200.924393      -65.964211
 N         -73.039948     -200.892227      -66.233322
 H         -76.089325     -198.554062      -67.867432
 H         -75.188599     -200.823273      -65.658165
 C         -75.191879     -198.070755      -68.141533
 C         -74.889771     -196.691925      -67.854454
 C         -74.474770     -198.797531      -69.196068
 C         -73.566727     -196.104126      -68.382072
 C         -73.315865     -198.026947      -69.887177
 C         -72.547791     -197.239975      -68.886955
 H         -74.802177     -196.555023      -66.673836
 H         -75.583733     -195.978058      -68.175621
 H         -74.166100     -199.794327      -68.809296
 H         -75.170998     -198.986069      -70.038162
 H         -73.055687     -195.496841      -67.565292
 H         -73.861801     -195.400681      -69.199615
 H         -73.596382     -197.403229      -70.761002
 H         -72.749359     -198.902069      -70.423409
 H         -72.222809     -197.939835      -68.143097
 H         -71.598343     -196.719833      -69.332443
