20
 generated by VMD
 C         -79.548225     -206.104340      -73.218933
 N         -79.363136     -206.654190      -74.266640
 H         -78.231712     -205.357162      -69.642235
 H         -79.993591     -205.665771      -72.373405
 C         -77.438042     -205.837265      -70.174904
 C         -76.563278     -205.132065      -71.165962
 C         -77.010300     -207.191437      -69.771843
 C         -75.130257     -205.041519      -70.761688
 C         -75.634201     -207.234055      -69.233345
 C         -74.592529     -206.455276      -70.095413
 H         -76.930649     -204.192795      -71.575081
 H         -76.442894     -205.753326      -72.074059
 H         -77.810776     -207.563553      -69.148987
 H         -76.882164     -207.898529      -70.653427
 H         -75.024712     -204.300125      -70.015198
 H         -74.487518     -204.828842      -71.605751
 H         -75.407249     -208.350418      -69.116730
 H         -75.559906     -206.819260      -68.277473
 H         -73.812202     -206.335190      -69.340935
 H         -74.246315     -207.010040      -70.976418
