20
 generated by VMD
 C          -1.533436      -17.235035        2.052286
 N          -1.588049      -17.296619        3.162483
 H          -5.326163      -17.210688        0.889026
 H          -4.966400      -18.255720       -0.397555
 C          -5.803417      -17.740973        0.062103
 C          -6.334910      -16.779882       -0.996078
 C          -6.926078      -18.541454        0.617093
 C          -7.019018      -17.544264       -2.127665
 C          -7.561407      -19.395817       -0.463482
 C          -8.115310      -18.489447       -1.556770
 H          -5.587848      -16.115194       -1.362226
 H          -7.017656      -16.139849       -0.388363
 H          -6.741157      -19.160654        1.527069
 H          -7.743705      -17.903112        1.062394
 H          -6.349082      -18.079144       -2.740678
 H          -7.453981      -16.859444       -2.853008
 H          -8.432389      -19.907066       -0.025440
 H          -6.947236      -20.250088       -0.902340
 H          -8.424620      -19.172977       -2.386300
 H          -8.998400      -17.917749       -1.262776
