20
 generated by VMD
 C         -22.437515      -67.933167      -16.300211
 N         -21.397198      -67.822578      -15.774837
 H         -24.194862      -65.331375      -18.755459
 H         -23.170225      -67.890236      -16.986610
 C         -24.545414      -66.348671      -18.731874
 C         -23.930046      -66.906288      -20.073626
 C         -25.998669      -66.575706      -18.589622
 C         -24.456869      -68.401680      -20.277777
 C         -26.659916      -67.909508      -19.124220
 C         -25.998569      -68.396370      -20.381384
 H         -22.726719      -66.921150      -20.191694
 H         -24.364380      -66.292580      -20.866312
 H         -26.229654      -66.487213      -17.560369
 H         -26.446703      -65.822838      -19.174286
 H         -24.280149      -69.153717      -19.510139
 H         -24.075911      -68.877464      -21.199938
 H         -27.710640      -67.564514      -19.104729
 H         -26.650230      -68.650024      -18.283916
 H         -26.326155      -69.328598      -20.844341
 H         -26.244741      -67.634270      -21.097914
