20
 generated by VMD
 C         -68.223366     -185.200195      -67.593925
 N         -67.601700     -185.926971      -66.939400
 H         -69.684029     -185.219101      -64.517044
 H         -68.813370     -184.396393      -68.082359
 C         -69.651245     -185.531021      -63.524044
 C         -70.815094     -185.177582      -62.639271
 C         -68.827866     -186.741699      -63.134476
 C         -70.448418     -185.423187      -61.127514
 C         -68.371719     -186.594345      -61.720608
 C         -69.572945     -186.636230      -60.823208
 H         -71.764297     -185.737793      -62.799885
 H         -71.190613     -184.137405      -62.799652
 H         -69.429619     -187.742599      -63.240013
 H         -67.998451     -186.996490      -63.865948
 H         -71.280998     -185.371765      -60.457920
 H         -69.930550     -184.533752      -60.710285
 H         -67.839111     -185.653976      -61.505707
 H         -67.609886     -187.422897      -61.500698
 H         -70.261032     -187.583069      -61.067089
 H         -69.423836     -186.516037      -59.696850
