20
 generated by VMD
 C         -68.657768     -193.700485      -64.639069
 N         -68.446198     -194.397537      -65.508888
 H         -70.956635     -193.439865      -67.701515
 H         -69.081604     -193.076767      -63.800587
 C         -71.809593     -192.985626      -67.201729
 C         -71.635391     -191.792938      -66.385635
 C         -73.072395     -193.712326      -67.243607
 C         -72.914093     -191.074799      -65.921143
 C         -74.102043     -193.287521      -66.133377
 C         -73.795921     -192.079041      -65.264702
 H         -71.092010     -191.072479      -66.915596
 H         -71.009003     -192.104538      -65.395126
 H         -73.502579     -193.376923      -68.164192
 H         -72.942200     -194.803650      -67.229111
 H         -73.451897     -190.710129      -66.830650
 H         -72.717087     -190.315918      -65.159340
 H         -74.046715     -194.104431      -65.436081
 H         -75.098000     -193.171661      -66.570473
 H         -74.676804     -191.602600      -64.993790
 H         -73.211647     -192.458389      -64.346924
