20
 generated by VMD
 C         -31.410336      -76.958138      -24.939245
 N         -32.087204      -77.050514      -25.864552
 H         -28.851898      -76.687691      -22.019449
 H         -30.840389      -76.886154      -24.032993
 C         -28.495249      -77.715202      -22.167105
 C         -27.441929      -77.935226      -23.216114
 C         -28.811779      -78.889191      -21.223040
 C         -26.247808      -78.603638      -22.666109
 C         -27.524143      -79.369011      -20.522209
 C         -26.461695      -79.805183      -21.665985
 H         -27.181299      -77.062401      -23.945160
 H         -27.974823      -78.527931      -24.037573
 H         -29.591263      -78.740730      -20.458965
 H         -29.285824      -79.758781      -21.792139
 H         -25.733910      -77.756912      -22.168808
 H         -25.648216      -79.113525      -23.452421
 H         -27.748501      -80.204620      -19.854794
 H         -27.213720      -78.459007      -19.922720
 H         -25.586935      -79.974327      -21.083626
 H         -26.807570      -80.791672      -22.176998
