20
 generated by VMD
 C         -30.417833      -79.608665      -25.983891
 N         -30.933775      -78.580261      -26.165850
 H         -28.471357      -82.522484      -25.717356
 H         -29.907154      -80.656326      -25.926771
 C         -28.947424      -82.317230      -24.667776
 C         -28.062759      -81.688431      -23.606874
 C         -29.971312      -83.247444      -24.232218
 C         -28.913551      -81.273476      -22.314846
 C         -30.841002      -82.757408      -23.059399
 C         -29.864725      -82.379539      -21.926989
 H         -27.491951      -80.840393      -24.044668
 H         -27.276863      -82.433281      -23.228258
 H         -30.711786      -83.385284      -24.995876
 H         -29.472078      -84.147560      -24.054422
 H         -29.711887      -80.445908      -22.347797
 H         -28.243120      -81.059700      -21.500441
 H         -31.521152      -83.478333      -22.771536
 H         -31.382244      -81.841850      -23.274643
 H         -30.484245      -81.924324      -21.213383
 H         -29.191429      -83.176712      -21.635839
