20
 generated by VMD
 C         -70.258659     -183.680267      -66.190163
 N         -69.125771     -183.420334      -66.123062
 H         -68.175270     -184.813431      -63.376568
 H         -71.384262     -183.835373      -66.259361
 C         -68.382690     -184.230240      -62.491600
 C         -68.611130     -184.712769      -61.140839
 C         -68.094612     -182.788254      -62.581718
 C         -67.752449     -184.290222      -59.990292
 C         -66.994499     -182.404709      -61.631519
 C         -67.334419     -182.814026      -60.186970
 H         -68.582451     -185.840942      -61.284813
 H         -69.646233     -184.525345      -60.856647
 H         -67.856819     -182.497345      -63.580734
 H         -68.977020     -182.144821      -62.171761
 H         -66.767723     -184.888733      -59.947704
 H         -68.274315     -184.400345      -58.985970
 H         -66.793449     -181.396545      -61.828003
 H         -66.120750     -182.962692      -61.874023
 H         -66.421806     -182.669876      -59.504116
 H         -68.082550     -182.056335      -59.633591
