20
 generated by VMD
 C         -41.929619     -101.444359      -32.906319
 N         -41.312572     -101.626373      -33.899643
 H         -38.773445     -103.792763      -32.712193
 H         -42.539001     -101.414940      -31.992311
 C         -37.873802     -103.427444      -32.149426
 C         -36.632130     -103.268967      -33.010536
 C         -37.739132     -103.660675      -30.654896
 C         -35.443836     -102.482117      -32.384884
 C         -36.370457     -102.994217      -30.098639
 C         -35.159687     -103.052673      -31.000620
 H         -36.866238     -102.717888      -33.895538
 H         -36.172138     -104.219345      -33.297256
 H         -38.417908     -103.284637      -29.946878
 H         -37.506348     -104.747467      -30.504639
 H         -35.752430     -101.449554      -32.221439
 H         -34.502182     -102.490791      -33.008278
 H         -36.401752     -103.452324      -29.050505
 H         -36.514061     -101.948975      -29.932846
 H         -34.357758     -102.326126      -30.655064
 H         -34.823803     -104.050591      -31.013519
