20
 generated by VMD
 C         -68.337402     -185.679337      -67.063126
 N         -67.977104     -184.652542      -67.433250
 H         -69.021324     -188.466217      -64.738686
 H         -68.674583     -186.615265      -66.687637
 C         -69.451347     -187.958099      -63.902210
 C         -69.147751     -186.453735      -63.563633
 C         -70.408249     -188.698029      -62.980427
 C         -69.395660     -186.141556      -62.077572
 C         -70.708351     -188.136414      -61.580902
 C         -70.774673     -186.601440      -61.581497
 H         -69.720497     -185.788528      -64.155792
 H         -68.181786     -186.129089      -63.869080
 H         -71.384628     -188.716202      -63.547894
 H         -70.156471     -189.775406      -62.935520
 H         -69.464035     -185.052414      -61.761333
 H         -68.519875     -186.516769      -61.581562
 H         -69.835213     -188.445358      -60.976345
 H         -71.701775     -188.436096      -61.256714
 H         -71.653740     -186.259567      -62.144650
 H         -70.923439     -186.464066      -60.427639
