20
 generated by VMD
 C         -41.440826     -102.353424      -35.637085
 N         -41.527771     -103.493324      -35.854839
 H         -39.664814     -104.728569      -33.150330
 H         -41.604359     -101.324142      -35.369125
 C         -38.683331     -105.030907      -32.772083
 C         -37.235489     -104.577553      -32.846218
 C         -38.862854     -106.450203      -32.211353
 C         -36.428513     -104.806931      -31.619595
 C         -38.113209     -106.465744      -30.842918
 C         -36.651001     -106.155731      -30.982409
 H         -37.229298     -103.533607      -33.158012
 H         -36.855721     -105.173271      -33.751884
 H         -39.940472     -106.575073      -32.038692
 H         -38.594059     -107.134071      -33.056385
 H         -36.643185     -103.985413      -30.814476
 H         -35.319130     -104.609352      -31.792240
 H         -38.082844     -107.456490      -30.425442
 H         -38.705250     -105.819252      -30.055977
 H         -36.257652     -106.231667      -29.988197
 H         -36.230179     -107.071472      -31.460981
