20
 generated by VMD
 C         -50.011078     -142.912262      -45.549057
 N         -48.904057     -143.144806      -45.265129
 H         -51.893589     -139.606400      -45.771465
 H         -51.021721     -142.804230      -45.815701
 C         -52.612534     -140.357483      -46.184696
 C         -52.203732     -140.706375      -47.606789
 C         -54.064934     -140.462677      -45.957924
 C         -52.765442     -141.992828      -48.130154
 C         -54.714092     -141.712524      -46.581272
 C         -54.289177     -141.981079      -48.031429
 H         -51.089268     -140.930038      -47.739502
 H         -52.505596     -139.896881      -48.312946
 H         -54.116116     -140.384079      -44.888596
 H         -54.606533     -139.605331      -46.281036
 H         -52.236004     -142.907898      -47.546925
 H         -52.473492     -142.107132      -49.262470
 H         -55.809650     -141.473618      -46.433720
 H         -54.567707     -142.717209      -46.177433
 H         -54.678753     -143.040146      -48.360901
 H         -54.749546     -141.099487      -48.677670
