20
 generated by VMD
 C         -48.024620     -135.215668      -46.104557
 N         -47.577538     -134.947540      -47.154442
 H         -51.280952     -134.662018      -45.474453
 H         -48.714725     -135.633881      -45.387604
 C         -51.298222     -135.577438      -44.937546
 C         -51.853889     -136.810883      -45.451088
 C         -51.203945     -135.345444      -43.381695
 C         -51.395355     -138.083694      -44.705750
 C         -50.779888     -136.645782      -42.712662
 C         -51.412277     -137.937042      -43.195927
 H         -51.538475     -136.810379      -46.553051
 H         -52.900566     -136.709351      -45.416916
 H         -50.604214     -134.493103      -43.030884
 H         -52.270100     -135.154297      -43.070518
 H         -50.356758     -138.203964      -44.959373
 H         -51.911228     -138.938568      -45.156235
 H         -51.027088     -136.627579      -41.625755
 H         -49.734428     -136.795853      -42.667786
 H         -50.832531     -138.789139      -42.587379
 H         -52.453648     -137.872009      -42.796879
