20
 generated by VMD
 C         -38.696831     -113.519981      -36.034618
 N         -37.571289     -113.837471      -35.988277
 H         -41.421513     -115.087852      -35.377369
 H         -39.693253     -113.085678      -36.075645
 C         -42.263107     -114.567398      -35.898224
 C         -42.274563     -114.415695      -37.367046
 C         -43.487793     -114.204643      -35.139908
 C         -43.454670     -115.225983      -37.882828
 C         -44.676289     -114.940430      -35.672176
 C         -44.800007     -114.836594      -37.218708
 H         -41.481884     -114.882484      -37.890518
 H         -42.431683     -113.491730      -37.782207
 H         -43.280003     -114.581184      -34.199108
 H         -43.469944     -113.161186      -35.111443
 H         -43.239609     -116.265007      -37.667896
 H         -43.585251     -115.214317      -39.017342
 H         -45.566799     -114.494942      -35.198997
 H         -44.544300     -116.035637      -35.411724
 H         -45.658020     -115.451241      -37.571560
 H         -44.922619     -113.735580      -37.641850
