20
 generated by VMD
 C         -30.114737      -92.716751      -25.589184
 N         -31.196276      -93.144829      -25.742846
 H         -33.076050      -91.079529      -26.395176
 H         -29.088531      -92.267494      -25.299843
 C         -33.643494      -91.035522      -27.310038
 C         -34.625889      -92.213989      -27.451994
 C         -33.053734      -90.355461      -28.550983
 C         -35.784191      -91.644936      -28.285030
 C         -34.327862      -89.905029      -29.329641
 C         -35.236641      -91.139961      -29.561584
 H         -35.146313      -92.506805      -26.377460
 H         -34.427750      -93.154030      -28.004959
 H         -32.525581      -89.425812      -28.230967
 H         -32.354370      -91.024368      -29.053516
 H         -36.270164      -90.905525      -27.715023
 H         -36.517033      -92.504303      -28.389051
 H         -34.089771      -89.710968      -30.410740
 H         -34.913784      -89.047882      -28.866039
 H         -36.022579      -90.799576      -30.239265
 H         -34.736851      -92.018394      -30.007353
