20
 generated by VMD
 C         -67.659706     -179.481293      -58.577187
 N         -68.407600     -180.213699      -58.119152
 H         -66.861015     -176.384552      -59.710438
 H         -66.992805     -178.704483      -58.982220
 C         -65.958275     -176.043365      -59.925545
 C         -65.973007     -175.109436      -61.063049
 C         -64.635033     -176.521469      -59.548306
 C         -64.997559     -173.921844      -60.889236
 C         -63.715042     -175.283951      -59.341038
 C         -63.558788     -174.426804      -60.672306
 H         -67.049995     -174.646408      -61.236317
 H         -65.801628     -175.579132      -62.055580
 H         -64.847168     -177.042938      -58.662830
 H         -64.355843     -177.207275      -60.305611
 H         -65.308929     -173.247696      -60.001122
 H         -65.092796     -173.126663      -61.666943
 H         -62.715271     -175.771133      -59.224876
 H         -63.964348     -174.631973      -58.496338
 H         -62.901314     -173.557419      -60.663979
 H         -63.177979     -174.996964      -61.544258
