20
 generated by VMD
 C         -58.561382     -151.782806      -49.691238
 N         -59.399853     -152.227173      -48.936039
 H         -55.663185     -149.890137      -47.715714
 H         -57.727180     -151.385590      -50.239433
 C         -55.101700     -149.579712      -48.653053
 C         -54.196014     -150.500046      -49.414082
 C         -54.840908     -148.135559      -48.961922
 C         -54.263588     -150.255127      -50.872562
 C         -54.708046     -147.875198      -50.459846
 C         -53.881428     -148.851959      -51.254204
 H         -54.607048     -151.505707      -49.146297
 H         -53.189590     -150.444168      -49.062920
 H         -55.630688     -147.592224      -48.531628
 H         -53.940548     -147.782349      -48.445309
 H         -55.195763     -150.448334      -51.386532
 H         -53.463310     -150.874756      -51.274620
 H         -54.411194     -146.707413      -50.569412
 H         -55.681007     -148.061996      -50.745697
 H         -54.105541     -148.727875      -52.277351
 H         -52.761246     -148.682144      -51.088055
