20
 generated by VMD
 C         -13.230651      -28.765354       -6.377475
 N         -13.147533      -28.785538       -7.486984
 H         -11.979981      -30.834013       -4.961444
 H         -10.639134      -29.736334       -4.507363
 C         -10.938239      -30.758369       -4.606162
 C         -10.149367      -31.549114       -5.623877
 C         -10.950971      -31.403675       -3.252573
 C          -8.661893      -31.801882       -5.164044
 C          -9.529962      -31.404997       -2.781320
 C          -8.519212      -32.147491       -3.667146
 H         -10.186080      -30.912157       -6.577597
 H         -10.479747      -32.537548       -5.923302
 H         -11.566114      -30.806789       -2.526472
 H         -11.389046      -32.425995       -3.297127
 H          -8.133575      -30.882986       -5.433819
 H          -8.246467      -32.640800       -5.750302
 H          -9.519403      -31.849575       -1.820215
 H          -9.224994      -30.320431       -2.576350
 H          -7.553497      -31.891602       -3.283885
 H          -8.734137      -33.189022       -3.560246
