20
 generated by VMD
 C         -21.359331      -52.416607      -11.361099
 N         -21.466711      -52.913734      -10.377344
 H         -19.976387      -50.617405      -13.419433
 H         -21.681101      -52.047924      -12.506756
 C         -18.925503      -50.955532      -13.385451
 C         -18.249567      -51.862057      -14.397254
 C         -18.162466      -50.596138      -12.102048
 C         -16.741602      -52.009209      -14.365349
 C         -16.691631      -50.489151      -12.407044
 C         -16.172091      -51.799576      -12.965478
 H         -18.624327      -51.624573      -15.409402
 H         -18.645462      -52.825169      -14.081767
 H         -18.592115      -49.679214      -11.579851
 H         -18.289618      -51.410408      -11.398989
 H         -16.203180      -51.325718      -15.049417
 H         -16.607748      -53.001606      -14.849997
 H         -16.052765      -50.232136      -11.468309
 H         -16.556261      -49.673714      -13.112665
 H         -15.064204      -51.867302      -12.967018
 H         -16.519743      -52.662956      -12.367359
