20
 generated by VMD
 C         -50.700893     -145.022232      -44.844677
 N         -50.862175     -146.078720      -44.276623
 H         -53.522060     -144.346695      -46.316685
 H         -50.661945     -144.131531      -45.435917
 C         -53.591324     -143.580521      -47.104691
 C         -52.549534     -143.542160      -48.260284
 C         -54.721935     -142.629974      -47.092381
 C         -53.314159     -143.529388      -49.656025
 C         -55.442013     -142.675964      -48.425636
 C         -54.593143     -142.484970      -49.639713
 H         -51.855373     -144.427460      -48.242123
 H         -51.845524     -142.603653      -48.202011
 H         -55.437428     -142.817566      -46.241520
 H         -54.048580     -141.717407      -46.945824
 H         -53.820129     -144.512421      -49.854866
 H         -52.733261     -143.227646      -50.584610
 H         -56.339340     -142.093582      -48.549164
 H         -55.933643     -143.729431      -48.472149
 H         -54.995773     -142.661621      -50.708977
 H         -54.161789     -141.415070      -49.661098
