20
 generated by VMD
 C         -12.854895      -30.122347       -8.365990
 N         -13.836537      -30.547987       -8.690551
 H         -10.902843      -30.849405       -4.968052
 H         -10.726260      -31.573315       -3.392161
 C         -10.799403      -31.821568       -4.492264
 C          -9.479726      -32.456463       -4.875964
 C         -11.993504      -32.768887       -4.929327
 C          -9.201498      -33.769077       -4.224346
 C         -11.690981      -34.111755       -4.220376
 C         -10.348751      -34.687550       -4.515618
 H          -8.605212      -31.736292       -4.803923
 H          -9.515850      -32.622532       -5.959774
 H         -12.969830      -32.324291       -4.731777
 H         -11.973608      -32.832008       -6.028350
 H          -9.053943      -33.679401       -3.177968
 H          -8.250074      -34.165024       -4.541595
 H         -12.468810      -34.832588       -4.480534
 H         -11.744596      -34.016697       -3.152341
 H         -10.144346      -35.682304       -4.051229
 H         -10.342696      -34.928547       -5.588202
