20
 generated by VMD
 C         -40.035328     -105.199440      -37.069920
 N         -39.795200     -104.054092      -37.039715
 H         -40.145187     -107.945724      -34.952190
 H         -40.334690     -106.214439      -37.297146
 C         -39.582779     -108.678864      -34.392216
 C         -38.477249     -108.122093      -33.547874
 C         -40.375935     -109.781761      -33.631725
 C         -38.881054     -107.795639      -32.123653
 C         -40.744961     -109.596939      -32.224144
 C         -39.519341     -108.978676      -31.457073
 H         -38.172630     -107.114388      -33.954048
 H         -37.552155     -108.790070      -33.584431
 H         -41.312363     -109.975113      -34.186512
 H         -39.760101     -110.726585      -33.786163
 H         -39.654083     -106.950356      -32.045677
 H         -38.053207     -107.449440      -31.499506
 H         -41.112057     -110.480347      -31.749756
 H         -41.522053     -108.849899      -32.149792
 H         -39.753464     -108.706039      -30.460159
 H         -38.596119     -109.773766      -31.363747
