20
 generated by VMD
 C         -58.572681     -152.118927      -49.165207
 N         -59.566010     -152.162064      -49.730080
 H         -55.886452     -150.289124      -48.007343
 H         -57.680367     -151.969635      -48.532719
 C         -55.305439     -149.860825      -48.875080
 C         -54.518211     -150.869324      -49.605511
 C         -55.058239     -148.384155      -49.057659
 C         -54.206787     -150.504364      -50.959160
 C         -54.737209     -148.185486      -50.523167
 C         -53.735329     -149.112427      -51.107792
 H         -54.940189     -151.884476      -49.656776
 H         -53.590542     -150.838913      -48.966068
 H         -56.039970     -147.798248      -48.792336
 H         -54.312862     -147.987442      -48.305824
 H         -55.145035     -150.703369      -51.535477
 H         -53.409199     -151.088852      -51.393585
 H         -54.450092     -147.151978      -50.731522
 H         -55.727165     -148.028488      -51.160221
 H         -53.465797     -148.876083      -52.139122
 H         -52.742622     -149.000809      -50.621670
