20
 generated by VMD
 C         -47.549858     -137.975418      -46.028339
 N         -47.294674     -137.454407      -47.015320
 H         -50.389473     -137.197968      -44.318329
 H         -47.917397     -138.592041      -45.223751
 C         -51.302353     -137.624817      -44.767052
 C         -51.332771     -138.449280      -46.124588
 C         -52.575726     -137.462219      -43.982254
 C         -52.282646     -139.646179      -46.040733
 C         -53.486374     -138.761642      -44.055363
 C         -53.649441     -139.192657      -45.503498
 H         -50.347408     -138.880127      -46.214931
 H         -51.555271     -137.637802      -46.959324
 H         -52.330482     -137.292786      -42.949429
 H         -53.142208     -136.632507      -44.366203
 H         -51.828735     -140.479004      -45.410934
 H         -52.501133     -139.993896      -47.077538
 H         -54.426712     -138.489822      -43.695267
 H         -53.014645     -139.517288      -43.464172
 H         -54.391331     -139.939163      -45.509232
 H         -54.092426     -138.332352      -46.142433
