20
 generated by VMD
 C         -20.454535      -57.307598      -16.654205
 N         -19.793388      -56.350487      -16.537642
 H         -22.643766      -60.122116      -17.908905
 H         -20.804811      -58.322563      -16.643930
 C         -22.586262      -60.665279      -17.025284
 C         -23.346052      -60.272293      -15.751095
 C         -21.323355      -61.349823      -16.805292
 C         -22.604656      -60.399330      -14.449722
 C         -20.966976      -62.030174      -15.479610
 C         -21.939304      -61.805614      -14.359664
 H         -24.201117      -60.982029      -15.574042
 H         -23.878878      -59.307438      -15.806438
 H         -21.201347      -62.011078      -17.684225
 H         -20.595131      -60.561947      -16.971165
 H         -23.290474      -60.255074      -13.618362
 H         -21.783495      -59.629829      -14.500852
 H         -19.835831      -62.005604      -15.276310
 H         -21.041740      -63.141502      -15.695505
 H         -22.587318      -62.660450      -14.383042
 H         -21.456654      -61.763168      -13.400187
