20
 generated by VMD
 C         -13.151587      -30.301687       -8.314673
 N         -13.810449      -30.318975       -9.208151
 H         -10.849092      -31.096231       -5.189446
 H         -10.947613      -31.794941       -3.558592
 C         -10.865170      -32.031574       -4.616540
 C          -9.436110      -32.666241       -4.791111
 C         -12.017626      -32.990341       -5.023864
 C          -9.325931      -33.981422       -4.066861
 C         -11.730150      -34.285770       -4.214311
 C         -10.358964      -34.931087       -4.564975
 H          -8.648319      -32.051765       -4.443524
 H          -9.179194      -32.838512       -5.873991
 H         -12.972698      -32.519093       -4.763138
 H         -12.006456      -33.141037       -6.103271
 H          -9.385151      -33.912453       -2.959018
 H          -8.301914      -34.355919       -4.185490
 H         -12.593360      -34.995193       -4.390102
 H         -11.791153      -34.103863       -3.125672
 H         -10.261362      -35.924580       -4.099115
 H         -10.239144      -35.000763       -5.635053
