20
 generated by VMD
 C         -70.391663     -196.673141      -65.268929
 N         -69.653671     -197.363190      -65.830765
 H         -73.937416     -196.148453      -65.343010
 H         -71.038261     -196.074829      -64.616554
 C         -73.774338     -195.450424      -66.169067
 C         -73.127403     -194.119629      -66.058731
 C         -74.242149     -196.004852      -67.537270
 C         -72.416634     -193.935913      -67.420364
 C         -74.603806     -194.689133      -68.390480
 C         -73.453697     -193.737869      -68.540176
 H         -72.485954     -193.992477      -65.170410
 H         -73.910828     -193.329300      -65.927246
 H         -73.623566     -196.683029      -68.024261
 H         -75.151718     -196.579193      -67.379593
 H         -71.826431     -194.804321      -67.589203
 H         -71.688866     -193.143921      -67.402016
 H         -75.440643     -194.157745      -67.862465
 H         -74.916054     -194.952057      -69.397903
 H         -72.887100     -193.834106      -69.535698
 H         -73.755150     -192.633499      -68.558388
