20
 generated by VMD
 C         -80.173325     -206.845886      -74.038979
 N         -80.575607     -206.916946      -75.101509
 H         -76.934044     -207.254303      -72.975090
 H         -79.987030     -206.718887      -73.027000
 C         -76.612991     -207.564346      -72.054161
 C         -75.348045     -207.056137      -71.376869
 C         -77.262123     -208.697189      -71.301949
 C         -75.488380     -206.884018      -69.871910
 C         -77.558304     -208.282486      -69.937897
 C         -76.183609     -207.972885      -69.169472
 H         -75.151459     -206.094864      -71.828781
 H         -74.500183     -207.769897      -71.552238
 H         -78.160866     -209.106888      -71.845100
 H         -76.566635     -209.505157      -71.233841
 H         -75.982414     -205.867676      -69.701363
 H         -74.559601     -206.703674      -69.304016
 H         -78.174744     -209.007690      -69.365776
 H         -78.133675     -207.330032      -69.912453
 H         -76.476601     -207.654068      -68.197411
 H         -75.634277     -208.952148      -69.108002
