20
 generated by VMD
 C          -1.903668      -13.114558        0.514035
 N          -1.569739      -13.492759        1.502767
 H          -3.439284      -16.249853        1.702877
 H          -3.982506      -15.845416        0.068213
 C          -4.353245      -16.189240        1.053115
 C          -5.365028      -15.164081        1.566457
 C          -4.966832      -17.636581        0.972484
 C          -6.702626      -15.155271        0.794150
 C          -6.265563      -17.598770        0.128801
 C          -7.251682      -16.575762        0.611880
 H          -4.967098      -14.153182        1.362345
 H          -5.553413      -15.392046        2.618546
 H          -4.122789      -18.353195        0.472916
 H          -5.142439      -18.106812        2.030338
 H          -6.531710      -14.685381       -0.233453
 H          -7.390799      -14.484138        1.401736
 H          -6.674029      -18.603388        0.120362
 H          -6.015020      -17.388502       -0.961305
 H          -8.156976      -16.568853       -0.003278
 H          -7.550063      -16.964977        1.587891
