20
 generated by VMD
 C         -29.478472      -89.260384      -26.054482
 N         -29.515829      -88.714577      -25.031826
 H         -31.715805      -90.839699      -27.574120
 H         -29.251804      -89.735825      -26.932577
 C         -32.480652      -90.049995      -27.413010
 C         -33.236080      -90.141869      -26.142368
 C         -33.014759      -89.224800      -28.600451
 C         -34.101955      -88.928413      -25.924658
 C         -33.952579      -88.102638      -28.306437
 C         -34.947338      -88.530968      -27.245617
 H         -32.474072      -90.140396      -25.285315
 H         -33.638027      -91.198044      -26.012094
 H         -32.043331      -88.984543      -28.936188
 H         -33.428131      -89.978706      -29.253946
 H         -33.365570      -88.187286      -25.698326
 H         -34.758080      -89.217644      -25.140961
 H         -34.572662      -87.765259      -29.202183
 H         -33.382580      -87.249496      -27.889189
 H         -35.679550      -87.713913      -26.857098
 H         -35.717884      -89.350067      -27.415932
