20
 generated by VMD
 C         -10.593753      -35.607258       -8.582862
 N         -10.448603      -36.696522       -8.278256
 H         -13.284044      -37.232872       -7.186196
 H         -14.576897      -37.822933       -6.113693
 C         -13.982128      -38.054214       -7.015199
 C         -13.091936      -39.312805       -6.992549
 C         -15.028850      -38.151985       -8.128898
 C         -13.892744      -40.707439       -7.059943
 C         -15.855578      -39.455990       -8.021221
 C         -14.926699      -40.653526       -8.228944
 H         -12.503591      -39.212620       -6.038534
 H         -12.329017      -39.336193       -7.825896
 H         -15.711434      -37.271473       -8.095832
 H         -14.593661      -38.132626       -9.088511
 H         -14.413364      -40.849430       -6.114213
 H         -13.223291      -41.495293       -7.261391
 H         -16.655174      -39.417866       -8.826542
 H         -16.379892      -39.477703       -7.111066
 H         -15.493019      -41.603142       -8.305136
 H         -14.397016      -40.498665       -9.144737
