20
 generated by VMD
 C         -38.572315      -99.060814      -27.127808
 N         -37.667892      -98.949059      -26.397490
 H         -37.128319      -97.164299      -30.114946
 H         -39.284569      -99.152634      -27.875723
 C         -36.054508      -96.923164      -30.201059
 C         -35.468739      -97.474846      -31.503027
 C         -35.269196      -95.936432      -29.422129
 C         -34.443573      -96.514252      -32.232151
 C         -34.022175      -95.325249      -30.081387
 C         -33.460625      -95.900513      -31.358400
 H         -36.297291      -97.772942      -32.125809
 H         -35.039738      -98.522575      -31.336002
 H         -35.809467      -95.051758      -29.150259
 H         -34.944386      -96.470848      -28.489967
 H         -34.963482      -95.805031      -32.818340
 H         -33.970215      -97.292313      -32.846134
 H         -33.179062      -95.285233      -29.334908
 H         -34.219212      -94.290726      -30.309324
 H         -33.009270      -95.159386      -31.982517
 H         -32.707485      -96.665672      -30.952057
