20
 generated by VMD
 C         -28.258224      -86.343452      -26.328499
 N         -27.851004      -87.238815      -26.912991
 H         -30.951170      -87.004837      -25.211538
 H         -28.788506      -85.535385      -25.764990
 C         -31.910402      -87.281021      -25.620104
 C         -32.921371      -87.933578      -24.639454
 C         -32.126976      -87.776314      -27.029615
 C         -34.413509      -87.633873      -25.165268
 C         -33.511227      -87.557045      -27.482254
 C         -34.653023      -87.978699      -26.596897
 H         -32.659554      -87.530495      -23.697815
 H         -32.938278      -88.972321      -24.569836
 H         -31.490400      -87.290184      -27.820814
 H         -31.918203      -88.821686      -27.196926
 H         -34.538719      -86.515770      -25.013437
 H         -35.069237      -88.221512      -24.423903
 H         -33.501991      -88.069763      -28.397066
 H         -33.602657      -86.501884      -27.757530
 H         -35.572033      -87.471970      -26.976875
 H         -34.890553      -88.995689      -26.654665
