20
 generated by VMD
 C         -60.718254     -153.678299      -51.545483
 N         -61.417683     -154.394730      -52.051235
 H         -57.598961     -153.840622      -52.232681
 H         -60.092678     -152.965332      -51.041996
 C         -56.753090     -153.484344      -51.657848
 C         -56.721119     -153.791962      -50.217304
 C         -55.850716     -152.457184      -52.197659
 C         -55.318642     -154.061783      -49.689777
 C         -54.387173     -152.564133      -51.659340
 C         -54.433567     -152.886154      -50.098843
 H         -57.319340     -154.718231      -50.125000
 H         -57.218685     -153.138443      -49.491360
 H         -55.938911     -152.416351      -53.344101
 H         -56.288948     -151.489471      -51.893089
 H         -54.825565     -155.065552      -49.926174
 H         -55.201389     -154.099182      -48.582317
 H         -53.931236     -151.540009      -51.805817
 H         -54.016270     -153.282867      -52.391724
 H         -53.531284     -152.953812      -49.524696
 H         -54.919163     -151.891571      -49.618855
