20
 generated by VMD
 C         -21.532181      -65.521935      -17.149630
 N         -20.801424      -65.854126      -16.317711
 H         -24.035952      -63.696594      -18.003681
 H         -21.970831      -64.942894      -17.839697
 C         -24.399851      -64.686874      -18.217285
 C         -24.546099      -65.103271      -19.684788
 C         -25.194164      -65.607140      -17.323694
 C         -24.285521      -66.622093      -19.778666
 C         -24.867575      -67.010925      -17.429691
 C         -25.165287      -67.443336      -18.872782
 H         -23.816931      -64.741730      -20.347322
 H         -25.598755      -64.843636      -20.095478
 H         -24.853973      -65.320595      -16.190411
 H         -26.284388      -65.318657      -17.360659
 H         -23.296291      -66.958954      -19.595085
 H         -24.589842      -66.886208      -20.780296
 H         -25.518629      -67.605644      -16.829578
 H         -23.871647      -67.275391      -17.108147
 H         -24.919054      -68.468613      -18.928251
 H         -26.240461      -67.309853      -19.055664
