20
 generated by VMD
 C         -48.010151     -125.082565      -38.808929
 N         -47.218578     -125.891808      -38.659893
 H         -45.414234     -123.032555      -37.794998
 H         -48.718590     -124.300690      -38.821640
 C         -45.194260     -122.919914      -38.799389
 C         -44.153549     -123.955383      -39.325451
 C         -45.674885     -121.837212      -39.656876
 C         -44.429565     -124.333839      -40.901894
 C         -46.001839     -122.257431      -41.086025
 C         -44.796352     -123.118683      -41.697952
 H         -44.387447     -124.805611      -38.790257
 H         -43.092022     -123.748962      -39.202618
 H         -46.530552     -121.317741      -39.131489
 H         -44.955441     -121.103119      -39.850445
 H         -45.129364     -125.191696      -40.977497
 H         -43.601112     -124.879471      -41.406498
 H         -46.203289     -121.440033      -41.891808
 H         -47.033443     -122.780693      -41.077515
 H         -45.219482     -123.502281      -42.576691
 H         -43.912418     -122.568855      -41.992699
