20
 generated by VMD
 C         -80.109657     -206.918777      -74.071365
 N         -80.488464     -206.359802      -74.984383
 H         -77.500710     -206.793823      -72.527733
 H         -79.601608     -207.301193      -73.252419
 C         -76.846848     -207.350235      -71.769890
 C         -75.414360     -206.736526      -71.529449
 C         -77.254036     -208.595856      -71.026604
 C         -75.462166     -206.417313      -70.054405
 C         -77.096756     -208.351730      -69.550407
 C         -75.837128     -207.641052      -69.155563
 H         -75.484535     -205.940613      -72.308250
 H         -74.553192     -207.402542      -71.663101
 H         -78.338844     -208.824341      -71.084564
 H         -76.710144     -209.440506      -71.342133
 H         -76.269806     -205.655807      -69.963799
 H         -74.618050     -205.821243      -69.644913
 H         -77.119362     -209.235489      -68.886368
 H         -77.946030     -207.770050      -69.288490
 H         -76.110504     -207.243362      -68.175537
 H         -74.826683     -208.240234      -69.010788
