20
 generated by VMD
 C         -68.353065     -194.279404      -66.436661
 N         -67.709785     -194.077682      -65.519249
 H         -70.281906     -191.147461      -66.467766
 H         -68.855164     -194.502319      -67.360703
 C         -71.256523     -191.046234      -66.035164
 C         -72.386360     -190.209030      -66.585808
 C         -71.482117     -191.967102      -64.877441
 C         -73.859627     -190.886459      -66.507301
 C         -72.879807     -191.792618      -64.285240
 C         -73.938232     -192.031845      -65.440559
 H         -72.238396     -190.055069      -67.669243
 H         -72.535515     -189.208466      -66.132439
 H         -71.319420     -193.055222      -65.305244
 H         -70.660034     -191.686813      -64.146248
 H         -73.979965     -191.395172      -67.534210
 H         -74.522995     -190.012253      -66.329109
 H         -73.067444     -190.809830      -63.767288
 H         -72.928040     -192.575165      -63.487267
 H         -73.800362     -192.924942      -65.905815
 H         -74.942284     -191.987244      -64.846359
