20
 generated by VMD
 C         -76.779968     -203.288391      -66.675194
 N         -77.560829     -203.878952      -66.057076
 H         -75.183495     -200.564514      -68.190292
 H         -76.221764     -202.834366      -67.454575
 C         -74.611687     -199.933182      -68.859177
 C         -74.860718     -198.458847      -68.718063
 C         -73.753998     -200.609436      -69.852417
 C         -73.528648     -197.870987      -68.933746
 C         -73.037674     -199.544296      -70.793701
 C         -72.872620     -198.140259      -70.211975
 H         -75.312813     -198.220184      -67.846390
 H         -75.554024     -198.115555      -69.484612
 H         -73.004814     -201.091354      -69.226006
 H         -74.403320     -201.254852      -70.485107
 H         -72.807953     -198.245789      -68.167564
 H         -73.641151     -196.812347      -68.845818
 H         -73.617279     -199.466995      -71.699165
 H         -72.159851     -199.949905      -71.202957
 H         -71.818039     -197.935837      -70.165314
 H         -73.353897     -197.293533      -70.927628
