20
 generated by VMD
 C         -50.680614     -129.582932      -45.824615
 N         -51.091396     -130.590820      -45.306885
 H         -48.817924     -130.903656      -43.989468
 H         -50.380177     -128.540741      -45.872120
 C         -48.234104     -131.109558      -43.096519
 C         -48.306957     -132.338242      -42.323895
 C         -47.946987     -129.897995      -42.275761
 C         -47.282696     -132.600998      -41.236160
 C         -46.843563     -130.062698      -41.091549
 C         -47.154652     -131.355942      -40.263756
 H         -48.267464     -133.211380      -43.010719
 H         -49.321747     -132.341110      -41.906162
 H         -47.582172     -129.084793      -42.889610
 H         -48.933151     -129.568985      -41.875450
 H         -46.306053     -132.743362      -41.728958
 H         -47.614059     -133.478210      -40.635448
 H         -46.846966     -129.199432      -40.369633
 H         -45.846729     -130.166336      -41.612961
 H         -46.396191     -131.555298      -39.382763
 H         -48.091999     -131.362686      -39.668518
