20
 generated by VMD
 C         -58.304302     -165.564941      -56.216980
 N         -57.307144     -165.505920      -56.875843
 H         -60.673489     -164.733276      -53.927376
 H         -59.241756     -165.570236      -55.678585
 C         -61.461346     -164.907410      -54.623386
 C         -61.726849     -166.420700      -54.871689
 C         -61.855995     -163.971786      -55.695862
 C         -63.248287     -166.490005      -54.862789
 C         -63.339977     -164.066376      -55.876183
 C         -63.822113     -165.555496      -55.974037
 H         -61.389030     -166.936264      -54.037491
 H         -61.226883     -166.852722      -55.765823
 H         -61.734325     -162.950684      -55.373421
 H         -61.333130     -164.079742      -56.601349
 H         -63.605305     -166.138992      -53.911434
 H         -63.418800     -167.502197      -54.943535
 H         -63.831959     -163.557907      -56.740421
 H         -63.879070     -163.872894      -54.862267
 H         -64.887520     -165.715515      -55.961674
 H         -63.531746     -165.910706      -56.982838
