20
 generated by VMD
 C         -40.623596     -104.183441      -36.623241
 N         -39.796482     -105.016647      -36.542839
 H         -40.357185     -106.830734      -34.548553
 H         -41.338142     -103.367653      -36.821247
 C         -39.644974     -107.462364      -34.007217
 C         -38.510017     -106.653275      -33.304592
 C         -40.070648     -108.823669      -33.406570
 C         -38.462509     -106.927383      -31.867922
 C         -39.780285     -109.127213      -32.006104
 C         -38.412476     -108.420563      -31.537081
 H         -38.598629     -105.495979      -33.383072
 H         -37.649235     -106.998322      -33.891579
 H         -41.170124     -108.929993      -33.599297
 H         -39.620552     -109.423584      -34.157116
 H         -39.331089     -106.509605      -31.321268
 H         -37.574158     -106.359207      -31.462799
 H         -39.702000     -110.254227      -31.976637
 H         -40.686451     -108.817192      -31.387592
 H         -38.264545     -108.416763      -30.336111
 H         -37.550507     -108.869019      -31.983236
