20
 generated by VMD
 C         -60.200794     -170.831787      -55.230286
 N         -59.249454     -171.473480      -55.186707
 H         -63.371956     -170.571671      -57.190048
 H         -61.066048     -170.207596      -55.370247
 C         -63.470276     -169.550308      -56.973141
 C         -62.298710     -168.647827      -57.558964
 C         -64.754311     -168.885529      -56.465908
 C         -62.967373     -167.974808      -58.700165
 C         -65.341843     -168.220184      -57.720478
 C         -64.271141     -167.249817      -58.338181
 H         -61.414913     -169.383575      -57.827003
 H         -61.899967     -167.948120      -56.926403
 H         -65.330711     -169.765106      -56.053177
 H         -64.649139     -168.201492      -55.618706
 H         -63.095333     -168.809570      -59.423031
 H         -62.220234     -167.218094      -59.227123
 H         -66.230392     -167.753174      -57.512478
 H         -65.660248     -168.946808      -58.403168
 H         -64.648376     -166.816071      -59.231987
 H         -64.049210     -166.380432      -57.640579
