20
 generated by VMD
 C         -40.473701     -117.384789      -34.506912
 N         -39.481125     -116.871887      -34.892563
 H         -41.628796     -116.434647      -37.213818
 H         -41.491192     -117.515205      -34.289600
 C         -42.665455     -116.400833      -37.621311
 C         -42.925716     -116.455215      -39.104259
 C         -43.827202     -116.226784      -36.729443
 C         -44.319538     -117.126068      -39.431686
 C         -45.039860     -116.936920      -37.153988
 C         -45.478378     -116.714119      -38.658020
 H         -42.157696     -117.041412      -39.662891
 H         -42.905819     -115.383469      -39.398102
 H         -43.572178     -116.604805      -35.750439
 H         -43.993507     -115.079430      -36.735085
 H         -44.111889     -118.154503      -39.570194
 H         -44.508160     -116.752716      -40.417332
 H         -45.927925     -116.634285      -36.608891
 H         -45.030060     -118.045273      -37.023289
 H         -46.527878     -117.281151      -38.790241
 H         -45.793045     -115.613525      -38.777092
