20
 generated by VMD
 C         -17.312670      -48.082809       -6.990630
 N         -16.796371      -47.116543       -6.818990
 H         -16.562607      -48.680885      -10.462746
 H         -15.590464      -48.504196      -11.871800
 C         -16.384203      -47.975071      -11.323086
 C         -15.784003      -46.652859      -10.882729
 C         -17.611923      -47.868183      -12.239226
 C         -15.623751      -45.651745      -12.107697
 C         -17.258249      -47.043163      -13.499057
 C         -16.857288      -45.648785      -13.012533
 H         -14.757298      -46.838047      -10.529947
 H         -16.424252      -46.209099      -10.096925
 H         -17.857874      -48.918213      -12.625486
 H         -18.438400      -47.406925      -11.631703
 H         -14.791634      -46.062813      -12.682935
 H         -15.343725      -44.655167      -11.734619
 H         -18.075787      -46.859711      -14.165644
 H         -16.529497      -47.581539      -14.097603
 H         -16.706007      -45.022102      -13.876307
 H         -17.676590      -45.254036      -12.478410
