20
 generated by VMD
 C         -39.018917      -98.875961      -27.894552
 N         -38.562698      -99.901482      -27.600176
 H         -37.389992      -98.443756      -30.623909
 H         -39.671463      -97.958290      -28.105522
 C         -36.365383      -97.963959      -30.791050
 C         -35.693352      -98.236618      -32.018238
 C         -35.710735      -97.283257      -29.611559
 C         -34.389317      -97.473770      -32.306934
 C         -34.424076      -96.575317      -29.894430
 C         -33.548553      -97.157799      -31.070225
 H         -36.334423      -97.934692      -32.853348
 H         -35.597897      -99.363922      -32.046909
 H         -36.464005      -96.663162      -29.137411
 H         -35.387638      -98.043579      -28.802080
 H         -34.706337      -96.399658      -32.524426
 H         -33.908524      -97.860519      -33.189987
 H         -33.845867      -96.377853      -28.963909
 H         -34.755119      -95.497147      -30.234196
 H         -32.734135      -96.329514      -31.336123
 H         -33.022930      -98.026154      -30.833157
