20
 generated by VMD
 C         -68.690155     -195.582153      -64.721825
 N         -68.634697     -196.730530      -65.014320
 H         -71.146591     -194.339676      -67.196198
 H         -68.720871     -194.520874      -64.513077
 C         -72.091904     -193.926483      -66.871712
 C         -72.144272     -192.418716      -66.752716
 C         -73.238441     -194.590912      -67.526093
 C         -73.545792     -191.953064      -66.259331
 C         -74.633224     -194.070236      -67.103394
 C         -74.712189     -192.587906      -67.142410
 H         -71.977989     -192.033218      -67.709923
 H         -71.359474     -191.866699      -66.138405
 H         -73.065651     -194.516418      -68.652977
 H         -73.215263     -195.731430      -67.334465
 H         -73.563728     -190.853790      -66.284462
 H         -73.789337     -192.179520      -65.220886
 H         -74.825272     -194.423218      -66.095078
 H         -75.461128     -194.469299      -67.755592
 H         -74.793480     -192.078064      -68.111855
 H         -75.632141     -192.301529      -66.556808
