20
 generated by VMD
 C         -22.658646      -55.350601      -17.201164
 N         -23.108469      -54.469048      -17.889032
 H         -20.202038      -55.879498      -14.523747
 H         -22.348150      -56.287880      -16.763222
 C         -20.007816      -56.929497      -14.255574
 C         -20.659185      -57.574501      -13.106606
 C         -19.097073      -57.803032      -15.104312
 C         -20.896933      -59.062923      -13.298275
 C         -19.454987      -59.240726      -15.014807
 C         -19.711246      -59.737392      -13.686740
 H         -21.610132      -57.071743      -12.870192
 H         -20.104866      -57.279995      -12.231145
 H         -19.110237      -57.412628      -16.154001
 H         -18.093353      -57.647209      -14.779708
 H         -21.768864      -59.283131      -13.952585
 H         -21.119438      -59.545147      -12.358978
 H         -18.589672      -59.852238      -15.375175
 H         -20.236897      -59.547211      -15.697113
 H         -19.888990      -60.860260      -13.639858
 H         -19.001135      -59.559280      -12.874194
