20
 generated by VMD
 C         -20.631506      -64.439217      -16.832481
 N         -19.578333      -64.079514      -16.464865
 H         -24.215895      -63.256409      -17.593464
 H         -21.636478      -64.700661      -17.312305
 C         -24.449364      -64.305504      -17.820599
 C         -24.592529      -64.635628      -19.271772
 C         -24.603670      -65.320679      -16.729357
 C         -24.803621      -66.022957      -19.764414
 C         -24.605705      -66.716927      -17.239193
 C         -25.444708      -66.821030      -18.550436
 H         -23.752308      -64.112015      -19.848104
 H         -25.355965      -63.994068      -19.714005
 H         -23.841560      -65.178917      -16.072573
 H         -25.520424      -65.124466      -16.267111
 H         -23.939854      -66.587845      -20.014683
 H         -25.427439      -66.146751      -20.601902
 H         -24.903715      -67.436882      -16.458500
 H         -23.610788      -66.955948      -17.506496
 H         -25.396328      -67.869835      -18.924780
 H         -26.417646      -66.512100      -18.374290
