20
 generated by VMD
 C         -22.199329      -67.366943      -16.305853
 N         -21.111275      -67.060844      -16.135860
 H         -23.989080      -65.237190      -18.159357
 H         -23.327063      -67.662949      -16.169472
 C         -24.363043      -66.193184      -18.547695
 C         -23.969877      -66.500595      -19.881615
 C         -25.859922      -66.360718      -18.238346
 C         -24.424219      -67.908119      -20.285126
 C         -26.470755      -67.654381      -18.711704
 C         -25.841373      -68.116768      -20.078552
 H         -22.869286      -66.531464      -19.981699
 H         -24.162857      -65.768394      -20.627028
 H         -26.000237      -66.355301      -17.145420
 H         -26.272451      -65.469643      -18.684143
 H         -23.904184      -68.602913      -19.626186
 H         -24.145716      -68.198372      -21.273010
 H         -27.537504      -67.405449      -18.731264
 H         -26.358107      -68.415794      -17.988932
 H         -26.169867      -69.151291      -20.317268
 H         -26.252531      -67.370941      -20.796436
