20
 generated by VMD
 C         -11.108792      -34.044453       -8.329659
 N         -11.001712      -33.449059       -9.236527
 H         -11.565364      -37.836658       -8.014009
 H         -12.459072      -37.258030       -6.500145
 C         -12.442613      -38.017685       -7.307809
 C         -12.485921      -39.411888       -6.590736
 C         -13.695555      -37.803665       -8.125029
 C         -13.721353      -39.494934       -5.709167
 C         -14.918928      -37.852642       -7.174310
 C         -15.028998      -39.147629       -6.360883
 H         -11.620831      -39.529690       -5.923517
 H         -12.355066      -40.154400       -7.346277
 H         -13.686181      -36.749470       -8.521743
 H         -13.890573      -38.512245       -8.927154
 H         -13.643913      -38.774765       -4.827925
 H         -13.753049      -40.483524       -5.292674
 H         -15.862472      -37.801964       -7.811919
 H         -14.920976      -37.009449       -6.496535
 H         -15.868142      -39.153202       -5.619383
 H         -15.237741      -39.940052       -7.057883
