20
 generated by VMD
 C         -11.964603      -39.448780       -6.467722
 N         -11.179658      -39.141533       -7.199803
 H         -12.823893      -41.080517       -9.052114
 H         -13.911995      -39.943016       -8.747173
 C         -13.878064      -40.977135       -9.027509
 C         -14.551910      -41.857121       -7.961299
 C         -14.465198      -41.210632      -10.445690
 C         -16.082609      -41.814022       -7.994998
 C         -16.028238      -41.008244      -10.404970
 C         -16.746809      -41.939701       -9.410144
 H         -14.190416      -41.642712       -6.941560
 H         -14.204963      -42.867569       -8.073897
 H         -14.077179      -40.497204      -11.230819
 H         -14.238390      -42.198467      -10.828719
 H         -16.405743      -40.874340       -7.497276
 H         -16.542545      -42.525818       -7.305366
 H         -16.387953      -41.229946      -11.392503
 H         -16.326326      -39.947414      -10.131593
 H         -17.801016      -41.575882       -9.358775
 H         -16.657907      -42.987507       -9.687520
