20
 generated by VMD
 C         -60.193409     -157.331772      -56.143505
 N         -59.685841     -158.140350      -56.745510
 H         -60.333050     -157.477966      -52.720764
 H         -60.676682     -156.612167      -55.494759
 C         -59.445698     -158.097702      -52.833916
 C         -58.050915     -157.840317      -52.235298
 C         -59.578106     -159.607269      -53.234001
 C         -57.635689     -158.704971      -51.053356
 C         -59.340679     -160.443695      -51.942265
 C         -57.905510     -160.213730      -51.384071
 H         -57.726784     -156.732193      -52.151947
 H         -57.334457     -158.089172      -53.024872
 H         -60.553379     -159.827179      -53.757675
 H         -58.777180     -159.640884      -53.977810
 H         -58.177021     -158.302994      -50.201260
 H         -56.446053     -158.593887      -50.892029
 H         -59.449875     -161.556931      -52.062622
 H         -60.104630     -160.065445      -51.215420
 H         -57.796616     -160.754837      -50.455296
 H         -57.050148     -160.646194      -52.034180
