20
 generated by VMD
 C         -27.881485      -82.785805      -27.300180
 N         -27.182674      -83.407127      -26.634558
 H         -31.496748      -84.250893      -26.544630
 H         -28.506107      -82.232643      -27.988363
 C         -31.836988      -84.939934      -25.818081
 C         -31.450031      -84.944511      -24.343313
 C         -32.285858      -86.248100      -26.347319
 C         -32.507915      -85.659599      -23.525610
 C         -33.197136      -87.093483      -25.409145
 C         -32.780403      -87.069870      -23.914513
 H         -31.320110      -83.941711      -23.941284
 H         -30.501427      -85.472496      -24.419439
 H         -32.801933      -86.105583      -27.331820
 H         -31.383200      -86.762230      -26.608215
 H         -33.323875      -84.999962      -23.503630
 H         -32.314526      -85.673157      -22.402542
 H         -33.296486      -88.231949      -25.748331
 H         -34.250320      -86.686127      -25.379126
 H         -33.680080      -87.575577      -23.510042
 H         -31.950666      -87.765846      -23.834101
