20
 generated by VMD
 C         -67.302292     -189.697586      -66.788109
 N         -66.698433     -189.073349      -67.534294
 H         -69.098671     -189.565521      -64.227455
 H         -67.859344     -190.146439      -65.937210
 C         -70.107277     -189.209869      -64.110435
 C         -71.070488     -190.336700      -63.867504
 C         -70.374222     -187.850128      -63.470428
 C         -72.479942     -189.894867      -64.161369
 C         -71.859482     -187.425369      -63.570107
 C         -72.883621     -188.584473      -63.337860
 H         -70.867989     -190.714706      -62.886646
 H         -70.784729     -191.270081      -64.340942
 H         -70.157326     -188.025925      -62.453865
 H         -69.659599     -187.174500      -64.019424
 H         -73.153923     -190.709229      -63.860760
 H         -72.645027     -189.713394      -65.234879
 H         -71.841667     -186.965179      -64.560760
 H         -72.058876     -186.733612      -62.709808
 H         -72.787117     -188.898865      -62.313004
 H         -73.914207     -188.277588      -63.334793
