20
 generated by VMD
 C         -13.361347      -29.657913       -7.370382
 N         -13.567213      -29.175638       -8.351534
 H         -11.548565      -30.374346       -4.778594
 H         -10.116883      -30.294413       -3.734363
 C         -10.723080      -30.922253       -4.359462
 C          -9.777297      -31.457760       -5.473547
 C         -11.386551      -32.010635       -3.530838
 C          -8.731045      -32.410233       -4.882450
 C         -10.267539      -32.986851       -3.023325
 C          -9.389969      -33.540035       -4.151666
 H          -9.183867      -30.610556       -5.952172
 H         -10.349498      -31.906811       -6.245364
 H         -11.866233      -31.610100       -2.641752
 H         -12.116368      -32.567039       -4.100572
 H          -8.044977      -31.825531       -4.293490
 H          -8.231666      -32.878822       -5.737483
 H         -10.862218      -33.731312       -2.578929
 H          -9.665654      -32.484680       -2.182109
 H          -8.573615      -34.057991       -3.729782
 H          -9.960450      -34.069931       -4.924930
