20
 generated by VMD
 C         -78.745628     -209.254135      -76.916183
 N         -79.740875     -208.670929      -76.934868
 H         -77.925209     -209.121002      -73.136246
 H         -77.753128     -209.685120      -76.864868
 C         -78.117905     -209.751312      -72.269081
 C         -76.868675     -210.054535      -71.462715
 C         -79.224358     -210.876297      -72.493904
 C         -77.383438     -210.629623      -69.986801
 C         -79.428040     -211.593185      -71.091797
 C         -78.184242     -211.906540      -70.204330
 H         -76.286598     -209.161789      -71.369751
 H         -76.377747     -210.888580      -71.962257
 H         -80.137024     -210.434235      -72.965584
 H         -78.987816     -211.647369      -73.156181
 H         -77.991074     -209.871094      -69.510635
 H         -76.543198     -210.875977      -69.325401
 H         -79.818642     -212.731339      -71.178139
 H         -80.212776     -211.072189      -70.599098
 H         -78.381210     -212.452484      -69.261116
 H         -77.628311     -212.549026      -70.921928
