20
 generated by VMD
 C         -10.719122      -37.268837       -8.174311
 N         -10.422324      -36.713207       -7.269094
 H         -12.839422      -39.227570       -7.956630
 H         -14.225799      -39.314144       -6.878318
 C         -13.820822      -39.613323       -7.792604
 C         -13.693203      -41.148968       -7.868900
 C         -14.795103      -39.123592       -8.918449
 C         -15.089671      -41.728775       -7.560101
 C         -16.159767      -39.812836       -8.940219
 C         -16.109648      -41.316135       -8.695198
 H         -13.000583      -41.580601       -7.176098
 H         -13.315150      -41.407955       -8.851478
 H         -14.929395      -38.042252       -8.876257
 H         -14.323000      -39.325851       -9.927736
 H         -15.436937      -41.323513       -6.609025
 H         -14.994539      -42.832954       -7.389103
 H         -16.634705      -39.605961       -9.854081
 H         -16.833742      -39.328812       -8.135038
 H         -17.065351      -41.755234       -8.492823
 H         -15.808047      -41.777782       -9.654131
