20
 generated by VMD
 C         -30.091896      -79.330574      -25.857498
 N         -30.958729      -78.603737      -26.105661
 H         -28.621468      -82.933472      -25.727028
 H         -29.246101      -80.035645      -25.701084
 C         -28.932146      -82.724350      -24.633444
 C         -28.203045      -81.955399      -23.639227
 C         -29.922422      -83.691071      -24.213428
 C         -29.250275      -81.232849      -22.748486
 C         -30.906984      -83.144943      -23.120338
 C         -30.095699      -82.269493      -22.004385
 H         -27.620220      -81.225433      -24.150358
 H         -27.538733      -82.671738      -23.136084
 H         -30.373291      -84.021492      -25.183311
 H         -29.442812      -84.534012      -23.767740
 H         -29.775023      -80.475281      -23.462420
 H         -28.772120      -80.717384      -21.948311
 H         -31.462608      -83.917747      -22.580414
 H         -31.596632      -82.487419      -23.637108
 H         -30.758242      -81.686165      -21.342821
 H         -29.386480      -82.996834      -21.492790
