20
 generated by VMD
 C         -70.194786     -198.216125      -64.324112
 N         -69.900604     -198.106628      -65.437607
 H         -72.987297     -196.790131      -66.402916
 H         -70.549889     -198.472351      -63.358307
 C         -73.476013     -195.871552      -66.741287
 C         -73.191513     -194.432770      -66.443138
 C         -74.502625     -196.050171      -67.953018
 C         -73.061890     -193.440704      -67.581604
 C         -74.818527     -194.847656      -68.840111
 C         -73.624245     -193.917862      -68.950333
 H         -72.213974     -194.473404      -65.875237
 H         -73.919868     -194.068481      -65.814598
 H         -73.848740     -196.783386      -68.559532
 H         -75.452446     -196.589615      -67.587555
 H         -72.027161     -193.114304      -67.747887
 H         -73.561218     -192.470657      -67.288467
 H         -75.669250     -194.348419      -68.352348
 H         -75.126411     -195.257614      -69.830872
 H         -72.955017     -194.598465      -69.440575
 H         -73.737396     -193.077148      -69.801651
