20
 generated by VMD
 C         -23.620779      -68.828186      -16.552116
 N         -23.295843      -69.599976      -15.739195
 H         -23.998726      -65.993805      -19.089279
 H         -24.067724      -68.075897      -17.308636
 C         -24.491390      -66.875893      -19.457247
 C         -23.950935      -67.802864      -20.589006
 C         -25.863537      -67.039413      -19.071087
 C         -24.510422      -69.204872      -20.695635
 C         -26.305626      -68.569611      -19.246639
 C         -26.067715      -69.200180      -20.535910
 H         -22.867956      -67.788643      -20.524412
 H         -24.264137      -67.324402      -21.456532
 H         -25.895491      -66.802147      -17.986742
 H         -26.596920      -66.494232      -19.822212
 H         -24.121935      -69.843788      -19.943445
 H         -24.149948      -69.538559      -21.646479
 H         -27.391338      -68.535889      -19.285240
 H         -25.820255      -69.139862      -18.434937
 H         -26.436947      -70.254654      -20.597870
 H         -26.425531      -68.764511      -21.475740
