20
 generated by VMD
 C         -12.281145      -31.456303       -8.764897
 N         -12.369679      -30.647058       -8.031003
 H         -10.903619      -34.937630       -7.775990
 H         -11.958443      -33.811283       -6.969941
 C         -11.422531      -34.803352       -6.831763
 C         -10.412964      -34.528706       -5.714040
 C         -12.266379      -36.008865       -6.452756
 C         -11.108923      -34.460720       -4.345760
 C         -13.056465      -35.918102       -5.136339
 C         -12.110911      -35.602448       -4.020409
 H          -9.693866      -33.682655       -5.907737
 H          -9.712513      -35.353638       -5.604028
 H         -12.910165      -36.338982       -7.297298
 H         -11.601814      -36.870247       -6.263044
 H         -11.571715      -33.461903       -4.296823
 H         -10.379232      -34.334377       -3.506176
 H         -13.556665      -36.920368       -5.020582
 H         -13.871382      -35.220089       -5.288358
 H         -12.667002      -35.433155       -3.075069
 H         -11.460754      -36.421055       -3.907487
