20
 generated by VMD
 C         -23.347309      -53.300823      -13.177300
 N         -23.285374      -52.630692      -14.193190
 H         -20.655977      -54.939167      -14.373434
 H         -23.485374      -53.803089      -12.329695
 C         -19.525183      -54.802906      -14.019927
 C         -18.948242      -53.384289      -14.001277
 C         -18.614641      -55.968731      -14.039145
 C         -17.840549      -53.263302      -13.008740
 C         -17.247976      -55.673855      -13.400743
 C         -16.745050      -54.277966      -13.335977
 H         -19.784386      -52.706306      -13.793283
 H         -18.558046      -53.014141      -14.943235
 H         -19.073032      -56.901440      -13.516152
 H         -18.417913      -56.254696      -15.082195
 H         -18.225286      -53.437557      -12.005727
 H         -17.317335      -52.289349      -12.995216
 H         -16.530439      -56.365734      -13.966602
 H         -17.203266      -55.975456      -12.383475
 H         -15.861444      -54.161118      -12.743364
 H         -16.329735      -54.016792      -14.303717
