20
 generated by VMD
 C         -69.018806     -180.599930      -61.001080
 N         -69.807533     -181.203918      -60.411617
 H         -66.973907     -178.471542      -59.440487
 H         -68.255814     -180.133102      -61.663162
 C         -66.288765     -177.688828      -59.889690
 C         -65.880577     -177.793884      -61.364819
 C         -65.373352     -177.229767      -58.732204
 C         -65.042183     -176.540359      -61.680782
 C         -64.471161     -176.096786      -59.260544
 C         -63.885742     -176.281555      -60.687122
 H         -66.751091     -178.009949      -61.997803
 H         -65.267502     -178.692215      -61.339741
 H         -65.958397     -176.678131      -57.947449
 H         -64.759399     -177.953049      -58.229076
 H         -65.592720     -175.548050      -61.611870
 H         -64.500282     -176.707794      -62.597778
 H         -63.574802     -175.881912      -58.658077
 H         -65.017662     -175.118118      -59.315147
 H         -63.163635     -175.408463      -60.796040
 H         -63.160870     -177.140778      -60.690777
