20
 generated by VMD
 C         -58.578522     -161.878616      -56.548355
 N         -57.811844     -161.089142      -56.084759
 H         -59.568993     -165.042236      -55.145615
 H         -59.356201     -162.596924      -56.878078
 C         -60.236256     -164.291870      -54.802261
 C         -59.933670     -163.616928      -53.525791
 C         -61.688740     -164.358002      -55.297058
 C         -60.808651     -162.440643      -53.297905
 C         -62.669613     -163.155167      -54.919628
 C         -62.250080     -162.729446      -53.509838
 H         -58.942505     -163.155914      -53.620163
 H         -60.120636     -164.498352      -52.802490
 H         -61.615974     -164.380585      -56.337177
 H         -62.044922     -165.371902      -54.930958
 H         -60.599098     -161.504120      -53.952621
 H         -60.827866     -162.085770      -52.290791
 H         -63.637169     -163.508530      -54.932186
 H         -62.645927     -162.382675      -55.678120
 H         -62.944805     -162.003220      -53.037182
 H         -62.440487     -163.662918      -52.902496
