20
 generated by VMD
 C         -54.332260     -148.152191      -45.417236
 N         -54.512585     -148.241257      -44.244228
 H         -54.515411     -148.077011      -48.745975
 H         -54.094097     -147.905487      -46.458458
 C         -54.239182     -147.013641      -48.973690
 C         -53.179390     -146.765259      -50.023308
 C         -55.170555     -145.863632      -48.407955
 C         -53.407600     -145.452789      -50.811771
 C         -55.147228     -144.544876      -49.315434
 C         -53.764927     -144.229095      -49.932972
 H         -53.442307     -147.438995      -50.801243
 H         -52.170631     -147.006607      -49.566658
 H         -56.164379     -146.191498      -48.245224
 H         -54.699726     -145.595947      -47.436371
 H         -54.171001     -145.625229      -51.621574
 H         -52.517052     -145.284531      -51.363064
 H         -55.432880     -143.662384      -48.588818
 H         -55.909092     -144.579620      -50.085022
 H         -53.748402     -143.199615      -50.410034
 H         -52.869003     -144.149902      -49.278767
