20
 generated by VMD
 C         -49.668564     -133.137833      -46.819809
 N         -48.816475     -132.516327      -47.142735
 H         -48.304493     -134.188400      -44.512173
 H         -50.366665     -133.772507      -46.329578
 C         -48.991356     -134.760971      -43.943302
 C         -49.372406     -136.161774      -44.166611
 C         -49.924919     -133.830368      -43.242764
 C         -50.041527     -136.852783      -43.028896
 C         -50.705067     -134.559891      -42.034920
 C         -51.216431     -135.967682      -42.426964
 H         -48.460907     -136.686081      -44.292030
 H         -49.993046     -136.354538      -45.092823
 H         -49.421021     -132.976059      -42.954330
 H         -50.640831     -133.538879      -44.001598
 H         -49.327427     -136.974106      -42.200653
 H         -50.519588     -137.798325      -43.336483
 H         -51.643349     -133.956345      -41.698048
 H         -49.984169     -134.563400      -41.150723
 H         -51.708134     -136.349075      -41.642635
 H         -51.996674     -135.704483      -43.134731
