20
 generated by VMD
 C         -68.871407     -193.606522      -66.604057
 N         -67.768196     -193.619064      -66.222343
 H         -69.904274     -190.537445      -65.633293
 H         -69.809921     -193.608841      -67.208595
 C         -70.990662     -190.758682      -65.554581
 C         -71.987740     -190.520325      -66.585907
 C         -71.503265     -191.198792      -64.197197
 C         -73.232765     -191.537399      -66.601463
 C         -72.953712     -191.076218      -64.050247
 C         -73.748589     -191.868942      -65.140511
 H         -71.510773     -190.449982      -67.660789
 H         -72.465942     -189.574112      -66.443153
 H         -71.271599     -192.336304      -63.949776
 H         -70.993866     -190.710983      -63.361752
 H         -72.831085     -192.546188      -67.010048
 H         -74.068092     -191.094208      -67.245415
 H         -73.358002     -190.090134      -64.155769
 H         -73.296478     -191.504028      -63.030956
 H         -73.632599     -192.886017      -65.018578
 H         -74.848755     -191.789505      -64.896347
