20
 generated by VMD
 C          -3.700045      -17.716162        1.981792
 N          -3.111987      -18.456543        2.571552
 H          -5.666502      -20.484880        0.537565
 H          -5.967723      -21.048975       -1.146194
 C          -6.145375      -20.236340       -0.412930
 C          -5.532171      -19.049570       -1.053096
 C          -7.628787      -20.041906       -0.157484
 C          -6.220812      -18.504412       -2.233622
 C          -8.405812      -19.366383       -1.318707
 C          -7.661128      -18.120813       -1.798938
 H          -4.452257      -19.369596       -1.367968
 H          -5.411595      -18.226322       -0.377651
 H          -8.119778      -20.922373        0.092343
 H          -7.750017      -19.476181        0.741999
 H          -6.271006      -19.224075       -3.015618
 H          -5.725705      -17.630802       -2.567546
 H          -9.386241      -19.059656       -0.941421
 H          -8.570964      -20.092962       -2.077892
 H          -8.128614      -17.733505       -2.709389
 H          -7.650059      -17.223452       -1.135450
