20
 generated by VMD
 C         -51.213581     -127.811241      -41.517574
 N         -51.923538     -128.668213      -41.856529
 H         -47.516312     -128.030670      -40.696484
 H         -50.637493     -127.043892      -41.043900
 C         -46.554153     -127.419212      -40.889912
 C         -45.315754     -127.762138      -40.058483
 C         -46.810860     -125.902618      -41.116665
 C         -44.121510     -127.204994      -40.766949
 C         -45.575989     -125.416084      -41.898613
 C         -44.223343     -125.769287      -41.110722
 H         -45.281925     -128.852646      -39.867363
 H         -45.423061     -127.353104      -38.993034
 H         -47.736095     -125.681664      -41.737656
 H         -46.855434     -125.619911      -40.132515
 H         -43.873020     -127.721336      -41.654598
 H         -43.296825     -127.314835      -40.097752
 H         -45.666359     -124.332085      -42.128925
 H         -45.475754     -126.001732      -42.817497
 H         -43.532581     -125.551598      -41.907982
 H         -44.109283     -125.031410      -40.274338
