20
 generated by VMD
 C         -39.884422     -100.378426      -30.500383
 N         -40.646034     -100.279221      -31.384687
 H         -37.184143     -102.428864      -30.761414
 H         -39.192596     -100.162216      -29.681765
 C         -36.579182     -101.605431      -30.893137
 C         -36.692654     -100.945435      -32.194527
 C         -35.388714     -101.431030      -30.038313
 C         -36.154633      -99.521591      -32.358208
 C         -35.022846      -99.953529      -30.012354
 C         -34.955952      -99.262825      -31.477577
 H         -37.765423     -100.903564      -32.538067
 H         -36.145767     -101.632790      -32.838081
 H         -35.705250     -101.771500      -28.985538
 H         -34.441811     -101.935257      -30.236931
 H         -36.918972      -98.779655      -32.040035
 H         -35.978798      -99.426994      -33.463840
 H         -34.080578      -99.780281      -29.569382
 H         -35.749088      -99.401306      -29.386303
 H         -34.961468      -98.147346      -31.225176
 H         -34.023624      -99.409096      -32.070103
