20
 generated by VMD
 C         -28.054813      -83.258438      -27.358635
 N         -27.260283      -83.435616      -26.525915
 H         -31.225218      -84.380875      -26.510479
 H         -28.798370      -83.115463      -28.231155
 C         -31.637993      -85.151299      -25.809006
 C         -31.562895      -85.018394      -24.365282
 C         -32.137653      -86.379524      -26.386734
 C         -32.590733      -85.847618      -23.526268
 C         -33.332489      -87.013954      -25.620426
 C         -32.944576      -87.236473      -24.104197
 H         -31.937431      -83.984764      -24.326591
 H         -30.565823      -85.150612      -23.976912
 H         -32.500740      -86.061920      -27.354925
 H         -31.353872      -87.101692      -26.604515
 H         -33.496372      -85.239471      -23.359249
 H         -32.285725      -85.945915      -22.448456
 H         -33.582870      -87.996643      -26.213043
 H         -34.205723      -86.282341      -25.786081
 H         -33.758186      -87.761894      -23.424589
 H         -32.062069      -87.892258      -24.228745
