20
 generated by VMD
 C         -12.517653      -31.040756       -8.416416
 N         -12.046107      -30.435003       -7.579037
 H         -11.749675      -34.260834       -7.755563
 H         -12.735722      -33.499340       -6.449206
 C         -11.854527      -34.176365       -6.617019
 C         -10.646387      -33.574337       -5.983478
 C         -12.153152      -35.540703       -6.029658
 C         -10.710094      -33.547863       -4.483709
 C         -12.302716      -35.650757       -4.560534
 C         -11.130929      -34.981812       -3.905166
 H         -10.459600      -32.550831       -6.358457
 H          -9.853201      -34.216560       -6.340116
 H         -13.025010      -36.032215       -6.462629
 H         -11.270037      -36.180065       -6.249871
 H         -11.535507      -32.919876       -4.149992
 H          -9.762926      -33.318428       -4.036003
 H         -12.372803      -36.636181       -4.258765
 H         -13.214201      -35.048363       -4.261904
 H         -11.338058      -34.835407       -2.868575
 H         -10.276303      -35.684940       -3.952062
