20
 generated by VMD
 C         -40.689259     -100.199303      -30.230133
 N         -41.026363     -100.414391      -29.153542
 H         -37.449883     -100.572868      -30.851978
 H         -40.279781     -100.154480      -31.168039
 C         -36.474125      -99.972473      -30.785480
 C         -36.089630      -99.914856      -32.200848
 C         -35.404289     -100.007996      -29.887167
 C         -35.067749      -98.768791      -32.449310
 C         -34.266590      -98.887726      -30.064932
 C         -33.901100      -98.595917      -31.463026
 H         -36.995621      -99.757889      -32.734421
 H         -35.606941     -100.842194      -32.596031
 H         -35.749241      -99.992378      -28.910204
 H         -34.922211     -100.997108      -30.096241
 H         -35.643623      -97.859055      -32.536503
 H         -34.769741      -98.937790      -33.430065
 H         -33.447414      -99.263382      -29.489029
 H         -34.811882      -97.978996      -29.701416
 H         -33.535797      -97.503204      -31.597830
 H         -33.157841      -99.377548      -31.722982
