20
 generated by VMD
 C         -41.025345     -102.543358      -34.998741
 N         -41.533897     -102.960083      -35.951645
 H         -39.648205     -104.189384      -32.143436
 H         -40.614822     -102.094849      -34.077469
 C         -38.705452     -104.776962      -32.447895
 C         -37.477669     -104.263618      -33.016827
 C         -38.716484     -106.180466      -31.758003
 C         -36.390789     -104.261070      -31.902679
 C         -37.769283     -106.146812      -30.606915
 C         -36.432381     -105.656662      -31.131329
 H         -37.460079     -103.226181      -33.310978
 H         -37.149925     -104.747345      -33.979908
 H         -39.631325     -106.731293      -31.444092
 H         -38.265732     -106.801674      -32.542366
 H         -36.603447     -103.436874      -31.163921
 H         -35.363686     -103.992867      -32.193005
 H         -37.596756     -107.030525      -30.098116
 H         -38.252617     -105.401436      -29.918148
 H         -35.897068     -105.465996      -30.226357
 H         -35.865700     -106.480370      -31.742983
