20
 generated by VMD
 C         -29.953678      -79.309227      -25.921616
 N         -30.896383      -78.623665      -26.036997
 H         -29.144459      -82.485931      -25.659401
 H         -29.023479      -79.959770      -25.881136
 C         -28.971165      -82.947861      -24.640278
 C         -28.341389      -81.942062      -23.722492
 C         -29.852297      -83.977318      -24.043098
 C         -29.281191      -81.259727      -22.765110
 C         -30.992453      -83.266129      -23.273121
 C         -30.274263      -82.344597      -22.177582
 H         -27.850626      -81.182068      -24.376419
 H         -27.617882      -82.418907      -23.124043
 H         -30.405315      -84.522049      -24.899540
 H         -29.230282      -84.697502      -23.467434
 H         -29.877590      -80.568153      -23.268023
 H         -28.563618      -80.708824      -22.176203
 H         -31.598557      -84.186867      -22.829760
 H         -31.689095      -82.708702      -23.901478
 H         -31.159246      -81.904533      -21.560831
 H         -29.707251      -83.160446      -21.598526
