20
 generated by VMD
 C          -1.524494      -11.189270        1.570792
 N          -1.073015      -12.051671        0.991700
 H          -3.824379      -13.078285        0.202893
 H          -5.454553      -12.913085        0.722179
 C          -4.605387      -13.634607        0.828271
 C          -4.098386      -13.824125        2.261847
 C          -5.034832      -14.927354        0.142712
 C          -5.168790      -14.574527        3.083454
 C          -6.134509      -15.505365        0.983559
 C          -5.668813      -15.813102        2.404613
 H          -4.081379      -12.889631        2.762876
 H          -3.154962      -14.378901        2.330710
 H          -5.469129      -14.687610       -0.874590
 H          -4.141659      -15.537747       -0.093252
 H          -6.025197      -13.911784        3.156211
 H          -4.911328      -14.801753        4.103223
 H          -6.529296      -16.420601        0.570333
 H          -6.967071      -14.783912        1.102000
 H          -6.355750      -16.399040        3.027962
 H          -4.771610      -16.445280        2.296825
