20
 generated by VMD
 C         -60.945370     -155.095734      -53.109306
 N         -61.000462     -154.288513      -52.201744
 H         -57.918396     -154.258331      -52.665550
 H         -60.890621     -155.848877      -53.872593
 C         -57.080727     -154.195557      -51.993763
 C         -57.458950     -154.115128      -50.465370
 C         -55.801586     -153.788010      -52.651142
 C         -56.168262     -154.590652      -49.596577
 C         -54.736519     -154.133240      -51.575459
 C         -54.962879     -153.832336      -50.069435
 H         -58.278206     -154.806976      -50.171932
 H         -57.801723     -153.022141      -50.273865
 H         -55.499451     -154.348633      -53.570312
 H         -55.806515     -152.713196      -52.749294
 H         -56.118534     -155.746780      -49.747009
 H         -56.564457     -154.418167      -48.604580
 H         -53.794292     -153.702530      -52.001747
 H         -54.534180     -155.232559      -51.570148
 H         -54.116863     -154.154221      -49.582890
 H         -55.285168     -152.760635      -49.847610
