20
 generated by VMD
 C         -73.717674     -200.357529      -65.729042
 N         -73.408958     -201.062164      -64.860573
 H         -72.236702     -197.211777      -66.629349
 H         -73.943932     -199.511520      -66.442894
 C         -72.647308     -196.806488      -67.547279
 C         -73.603722     -195.725174      -67.224815
 C         -72.534866     -197.418701      -68.885277
 C         -74.146736     -195.016174      -68.420982
 C         -73.832443     -197.359009      -69.664314
 C         -74.561081     -196.010315      -69.533478
 H         -72.983505     -195.192886      -66.532333
 H         -74.464378     -196.166519      -66.697166
 H         -71.779503     -196.771255      -69.420898
 H         -72.155624     -198.504440      -68.732437
 H         -73.316734     -194.465927      -68.893234
 H         -74.842720     -194.230011      -68.173241
 H         -74.445694     -198.091904      -69.153320
 H         -73.830132     -197.822571      -70.721954
 H         -74.585098     -195.625854      -70.477127
 H         -75.509018     -196.289368      -69.299591
