20
 generated by VMD
 C         -32.647552      -96.160835      -25.465500
 N         -33.050102      -95.779556      -24.470034
 H         -34.176533      -93.998192      -27.470522
 H         -32.227089      -96.393211      -26.470181
 C         -34.464737      -93.628647      -28.465252
 C         -35.856716      -93.539909      -28.965704
 C         -33.463116      -93.318146      -29.465170
 C         -36.216576      -92.410156      -29.827358
 C         -33.695831      -92.173988      -30.454666
 C         -35.149590      -92.243126      -30.994982
 H         -36.495701      -93.520821      -28.107138
 H         -35.918633      -94.582062      -29.386417
 H         -32.459557      -93.290245      -29.084566
 H         -33.465889      -94.207642      -30.150291
 H         -36.257454      -91.522537      -29.040771
 H         -37.179924      -92.508812      -30.330713
 H         -32.890533      -92.183113      -31.175213
 H         -33.612568      -91.134277      -29.997898
 H         -35.217678      -91.305695      -31.571949
 H         -35.230106      -93.151535      -31.543928
