20
 generated by VMD
 C         -45.942642     -123.955948      -35.636894
 N         -46.560555     -124.945602      -35.493057
 H         -44.778835     -121.598137      -37.971432
 H         -45.555836     -122.969612      -35.936516
 C         -44.641697     -121.619888      -39.005154
 C         -43.318707     -121.426834      -39.750732
 C         -45.782219     -120.686325      -39.500267
 C         -43.468494     -121.447617      -41.267250
 C         -45.897434     -120.789032      -41.109802
 C         -44.498959     -120.472885      -41.688038
 H         -42.555649     -122.139397      -39.420387
 H         -42.899399     -120.452660      -39.348709
 H         -46.700649     -120.860329      -39.026577
 H         -45.357059     -119.658257      -39.266731
 H         -43.742870     -122.461494      -41.693768
 H         -42.458179     -121.311859      -41.858776
 H         -46.740879     -119.938919      -41.260910
 H         -46.295734     -121.804993      -41.565407
 H         -44.624199     -120.553406      -42.799007
 H         -44.141018     -119.498833      -41.443722
