20
 generated by VMD
 C          -2.313621      -17.951670        2.354618
 N          -1.749031      -17.030464        2.620621
 H          -5.307530      -17.896807        0.930670
 H          -5.089221      -19.141914       -0.332369
 C          -5.795923      -18.422775        0.079896
 C          -6.037609      -17.260759       -0.898436
 C          -7.095335      -19.011057        0.550216
 C          -6.780959      -17.658358       -2.141578
 C          -7.928565      -19.426767       -0.689011
 C          -8.112317      -18.375444       -1.840504
 H          -5.048896      -16.918180       -1.154577
 H          -6.504830      -16.486109       -0.269364
 H          -6.849620      -19.943233        1.053279
 H          -7.631652      -18.291056        1.092912
 H          -6.201030      -18.402998       -2.615787
 H          -7.008374      -16.799232       -2.783332
 H          -8.916226      -19.820042       -0.317637
 H          -7.366292      -20.271620       -1.193447
 H          -8.444181      -18.940445       -2.731881
 H          -8.866103      -17.615612       -1.593083
