20
 generated by VMD
 C          -3.794543      -18.333044        1.993011
 N          -3.147991      -18.366854        2.899253
 H          -5.721968      -20.669144        0.261310
 H          -6.272878      -21.153965       -1.319718
 C          -6.249615      -20.327467       -0.622113
 C          -5.447400      -19.140141       -1.220273
 C          -7.647231      -19.857548       -0.108820
 C          -6.271573      -18.611717       -2.380317
 C          -8.441148      -19.486431       -1.327752
 C          -7.741873      -18.337677       -1.984815
 H          -4.452892      -19.449249       -1.635185
 H          -5.308039      -18.319529       -0.544896
 H          -8.185954      -20.657003        0.345652
 H          -7.487993      -19.030155        0.590470
 H          -6.219206      -19.297964       -3.201355
 H          -5.837007      -17.675508       -2.775885
 H          -9.411524      -19.104486       -0.932946
 H          -8.678548      -20.354900       -1.964639
 H          -8.309302      -18.074394       -2.866149
 H          -7.752075      -17.517076       -1.234752
