20
 generated by VMD
 C         -49.671017     -133.141922      -47.007771
 N         -49.147392     -132.161057      -47.038738
 H         -48.020905     -134.401810      -44.487579
 H         -50.094875     -134.121490      -47.132301
 C         -48.814709     -134.678864      -43.839306
 C         -49.211391     -136.099442      -44.053631
 C         -49.764343     -133.763107      -43.122780
 C         -50.036381     -136.715469      -42.941994
 C         -50.561516     -134.348602      -42.029263
 C         -51.127399     -135.753510      -42.306061
 H         -48.364292     -136.653427      -44.258228
 H         -49.763454     -136.016296      -45.016056
 H         -49.244621     -132.912827      -42.731060
 H         -50.479736     -133.378006      -43.922836
 H         -49.413349     -137.075592      -42.080952
 H         -50.677982     -137.528915      -43.313442
 H         -51.298424     -133.547348      -41.736015
 H         -49.943108     -134.543076      -41.135895
 H         -51.654510     -136.185059      -41.475449
 H         -51.903912     -135.670883      -43.176132
