20
 generated by VMD
 C         -49.609314     -131.819641      -46.473816
 N         -50.177631     -132.431992      -47.215599
 H         -47.663082     -133.595306      -44.313061
 H         -48.787727     -131.301025      -45.970276
 C         -48.600628     -133.809967      -43.788651
 C         -49.202419     -135.229630      -44.009464
 C         -49.086792     -132.896759      -42.754765
 C         -49.602180     -135.833740      -42.662624
 C         -49.518326     -133.679794      -41.488247
 C         -50.396294     -134.878693      -41.734470
 H         -48.450642     -135.866119      -44.527615
 H         -50.097519     -135.026215      -44.695938
 H         -48.303413     -132.386063      -42.354210
 H         -49.789829     -132.191376      -43.175735
 H         -48.723812     -136.364960      -42.257858
 H         -50.282948     -136.708878      -42.790379
 H         -50.010990     -132.846298      -40.848263
 H         -48.715031     -134.129074      -40.882267
 H         -50.507618     -135.402512      -40.779350
 H         -51.416077     -134.618835      -42.328732
