20
 generated by VMD
 C         -45.369537     -123.254471      -35.442909
 N         -45.904633     -124.306725      -35.280094
 H         -45.072807     -122.361404      -38.348415
 H         -44.895828     -122.321136      -35.446587
 C         -44.787434     -121.703964      -39.181278
 C         -43.395878     -121.334045      -39.564484
 C         -45.892475     -120.691353      -39.462749
 C         -43.391991     -120.938126      -41.062954
 C         -45.842533     -120.252151      -40.965054
 C         -44.425991     -119.842545      -41.429718
 H         -42.805771     -122.267326      -39.441948
 H         -42.825909     -120.621643      -38.927731
 H         -46.927700     -121.037735      -39.409447
 H         -45.695004     -119.883888      -38.617580
 H         -43.424755     -121.777351      -41.735783
 H         -42.347141     -120.615700      -41.374813
 H         -46.458050     -119.475441      -41.033268
 H         -46.088451     -121.112846      -41.599968
 H         -44.361198     -119.696754      -42.551655
 H         -44.082855     -118.932556      -40.920479
