20
 generated by VMD
 C         -27.999296      -84.609169      -26.052208
 N         -28.385246      -84.515938      -27.152044
 H         -30.926113      -84.725929      -26.326996
 H         -27.611992      -84.709053      -25.034460
 C         -31.527164      -85.534958      -25.855814
 C         -31.714605      -85.685524      -24.253435
 C         -31.942425      -86.688080      -26.788618
 C         -33.081665      -86.433945      -24.029119
 C         -33.392178      -87.131477      -26.429155
 C         -33.352043      -87.551857      -24.988222
 H         -31.659950      -84.570099      -23.910879
 H         -30.834915      -86.253601      -23.921455
 H         -31.930456      -86.545631      -27.844522
 H         -31.229141      -87.578659      -26.604437
 H         -33.831394      -85.687531      -24.155485
 H         -33.309120      -86.754036      -23.034628
 H         -33.784004      -87.971176      -26.992664
 H         -34.029182      -86.258408      -26.658442
 H         -34.291798      -87.942070      -24.583656
 H         -32.684628      -88.331718      -24.963381
