20
 generated by VMD
 C         -31.102360      -75.455727      -21.323849
 N         -32.214676      -75.571411      -21.672508
 H         -27.956631      -75.864449      -20.116146
 H         -30.101675      -75.331726      -21.555101
 C         -27.281975      -75.562202      -20.884361
 C         -26.652044      -76.695679      -21.770014
 C         -26.401297      -74.394287      -20.568220
 C         -25.738470      -76.170090      -22.832357
 C         -25.548483      -73.913666      -21.742643
 C         -24.721598      -75.155296      -22.345907
 H         -27.342175      -77.352974      -22.258871
 H         -26.069214      -77.322426      -20.972174
 H         -27.005188      -73.533531      -20.232332
 H         -25.880108      -74.599960      -19.695139
 H         -26.383537      -75.674179      -23.543318
 H         -25.359928      -77.013710      -23.374886
 H         -24.856958      -73.083130      -21.513689
 H         -26.295151      -73.618309      -22.470053
 H         -24.074266      -74.930946      -23.223988
 H         -24.237085      -75.453827      -21.387379
