20
 generated by VMD
 C         -79.148201     -206.764481      -75.387962
 N         -79.170311     -207.115753      -76.456627
 H         -78.977623     -209.726074      -72.768913
 H         -79.143097     -206.244522      -74.459663
 C         -78.105087     -209.971634      -72.166679
 C         -76.812599     -209.179962      -72.095955
 C         -78.360046     -211.075104      -71.173370
 C         -76.948563     -208.483109      -70.765579
 C         -78.221169     -210.411255      -69.838272
 C         -77.026329     -209.477692      -69.634506
 H         -76.661255     -208.489853      -72.949852
 H         -75.965096     -209.893646      -72.068260
 H         -79.319664     -211.580811      -71.316368
 H         -77.643501     -211.907379      -71.255844
 H         -77.739342     -207.731873      -70.896858
 H         -75.970589     -208.025986      -70.572845
 H         -78.063629     -211.270142      -69.057251
 H         -79.158630     -209.963608      -69.606583
 H         -77.179558     -208.769470      -68.842590
 H         -76.110260     -210.082108      -69.494827
