20
 generated by VMD
 C         -27.810257      -86.661278      -26.803465
 N         -28.124758      -85.614937      -26.427654
 H         -30.825356      -86.094223      -25.376558
 H         -27.498829      -87.623627      -27.265818
 C         -31.879175      -86.474884      -25.643627
 C         -32.753159      -86.888496      -24.412750
 C         -31.984808      -87.165184      -27.001600
 C         -34.187199      -87.393547      -24.796583
 C         -33.489422      -87.417664      -27.171478
 C         -34.032734      -88.190300      -26.048687
 H         -32.746967      -86.021584      -23.779072
 H         -32.145924      -87.629051      -23.726490
 H         -31.656590      -86.523933      -27.862589
 H         -31.479218      -88.113159      -27.056557
 H         -34.884674      -86.588531      -25.157726
 H         -34.779594      -87.893616      -24.080086
 H         -33.607529      -87.907516      -28.171751
 H         -34.015072      -86.451431      -27.312960
 H         -34.961060      -88.514580      -26.561703
 H         -33.399918      -89.122696      -25.747431
