20
 generated by VMD
 C         -30.308224      -92.793816      -26.037325
 N         -31.307354      -92.664886      -25.453007
 H         -33.142994      -90.358826      -26.292027
 H         -29.459826      -92.805176      -26.627764
 C         -33.462811      -90.785789      -27.213787
 C         -34.270573      -91.993065      -27.292503
 C         -33.064240      -90.047653      -28.508120
 C         -35.562778      -91.828033      -28.119287
 C         -34.351894      -89.808876      -29.304375
 C         -35.226608      -91.049881      -29.407846
 H         -34.567413      -92.453552      -26.275997
 H         -33.599548      -92.758179      -27.879869
 H         -32.595440      -89.091606      -28.271835
 H         -32.369869      -90.802399      -29.028996
 H         -36.136532      -91.179749      -27.420589
 H         -36.095898      -92.750900      -28.290636
 H         -34.173409      -89.606064      -30.365019
 H         -35.049320      -89.084328      -28.861423
 H         -36.132191      -90.808754      -29.976851
 H         -34.662777      -91.758568      -29.989845
