20
 generated by VMD
 C          -3.507566      -17.382496        2.170676
 N          -3.168512      -18.446644        2.166737
 H          -5.582367      -20.421127        0.661923
 H          -5.934161      -21.004963       -1.008056
 C          -6.116858      -20.209375       -0.282165
 C          -5.465720      -18.941101       -0.889600
 C          -7.553762      -19.966522       -0.073604
 C          -6.243407      -18.268284       -2.108114
 C          -8.284041      -19.331545       -1.256790
 C          -7.717311      -18.049088       -1.824304
 H          -4.431512      -19.138760       -1.056992
 H          -5.454886      -18.219307       -0.048486
 H          -8.153163      -20.923052        0.176192
 H          -7.701036      -19.401125        0.874007
 H          -6.127242      -18.917131       -3.062096
 H          -5.789726      -17.299324       -2.431873
 H          -9.348612      -19.200439       -0.990956
 H          -8.288027      -20.135559       -2.060391
 H          -8.282278      -17.622622       -2.671050
 H          -7.672179      -17.328526       -1.034503
