20
 generated by VMD
 C         -30.501451      -74.231453      -20.914423
 N         -30.335629      -75.295174      -20.471325
 H         -27.008236      -74.771065      -19.276207
 H         -30.533823      -73.201996      -21.306143
 C         -26.617073      -74.492798      -20.216822
 C         -26.205713      -75.745361      -21.061949
 C         -25.933399      -73.147537      -20.347784
 C         -26.036829      -75.275230      -22.517981
 C         -25.777613      -72.823486      -21.880354
 C         -25.121162      -73.959145      -22.631733
 H         -27.005354      -76.444527      -20.940512
 H         -25.306376      -76.298935      -20.657082
 H         -26.599684      -72.360466      -19.950092
 H         -25.079752      -73.021332      -19.791185
 H         -27.020456      -75.038803      -22.995842
 H         -25.554514      -76.095505      -23.107306
 H         -25.156925      -71.926834      -21.872829
 H         -26.693489      -72.522110      -22.467325
 H         -25.080883      -73.546432      -23.689810
 H         -24.148773      -74.251488      -22.198559
