20
 generated by VMD
 C         -46.704193     -124.673386      -37.640339
 N         -46.915646     -124.580238      -36.509087
 H         -44.766186     -122.439484      -37.693115
 H         -46.542843     -124.975151      -38.658783
 C         -44.838291     -122.249847      -38.816452
 C         -43.456280     -122.265488      -39.611736
 C         -45.879070     -121.396255      -39.443352
 C         -43.665440     -122.547531      -41.090462
 C         -46.063904     -121.763809      -40.931484
 C         -44.758545     -121.518677      -41.629726
 H         -42.656807     -122.884132      -39.356911
 H         -43.117802     -121.193840      -39.491966
 H         -46.829586     -121.643265      -38.920708
 H         -45.665363     -120.332794      -39.241322
 H         -43.988377     -123.563171      -41.323116
 H         -42.621597     -122.279655      -41.521954
 H         -46.916859     -121.125557      -41.247093
 H         -46.429623     -122.764008      -41.059170
 H         -44.960285     -121.562462      -42.713326
 H         -44.484772     -120.430931      -41.553722
