20
 generated by VMD
 C         -22.725077      -52.459671      -12.050802
 N         -23.745806      -52.411526      -11.412687
 H         -19.879648      -53.700684      -14.504289
 H         -21.709639      -52.364418      -12.291046
 C         -18.869717      -53.499130      -14.172299
 C         -18.270533      -52.196350      -14.530728
 C         -18.143333      -54.376190      -13.316520
 C         -16.792976      -52.149689      -14.454949
 C         -17.073544      -53.701717      -12.380001
 C         -16.233929      -52.653118      -13.052197
 H         -18.784239      -51.462814      -13.925625
 H         -18.586100      -51.890419      -15.574812
 H         -18.804810      -54.975193      -12.665312
 H         -17.634014      -55.019314      -13.990566
 H         -16.321501      -51.211578      -14.772161
 H         -16.428909      -52.902523      -15.152451
 H         -16.369970      -54.519138      -12.051383
 H         -17.532953      -53.342972      -11.494704
 H         -16.102522      -51.724747      -12.443576
 H         -15.213144      -53.059616      -13.230113
