20
 generated by VMD
 C         -29.584137      -87.918823      -24.990517
 N         -28.971006      -88.478271      -25.792152
 H         -31.367188      -89.669350      -27.848194
 H         -30.209963      -87.536865      -24.212292
 C         -32.360580      -89.601753      -27.472347
 C         -32.671692      -89.492653      -26.045067
 C         -33.409977      -89.508476      -28.384232
 C         -33.487595      -88.260597      -25.669884
 C         -34.185226      -88.107391      -28.241709
 C         -34.554047      -87.904099      -26.737391
 H         -31.692558      -89.463554      -25.606274
 H         -33.197422      -90.340080      -25.725458
 H         -33.033207      -89.399055      -29.422375
 H         -34.053810      -90.418785      -28.266626
 H         -32.945164      -87.393257      -25.434645
 H         -34.073723      -88.489853      -24.739199
 H         -35.088547      -88.164612      -28.821301
 H         -33.626598      -87.187035      -28.577051
 H         -34.743401      -86.829903      -26.549299
 H         -35.543098      -88.365181      -26.571323
