20
 generated by VMD
 C         -27.166185      -72.695671      -17.810247
 N         -27.898401      -73.356941      -17.186470
 H         -24.554625      -70.132095      -18.792305
 H         -26.323339      -72.304047      -18.332747
 C         -24.924917      -70.524239      -19.769762
 C         -24.404934      -71.677582      -20.417131
 C         -25.588915      -69.515511      -20.614527
 C         -25.398312      -72.374985      -21.311783
 C         -26.432764      -70.182358      -21.697241
 C         -25.803507      -71.414436      -22.320585
 H         -23.975048      -72.562675      -19.867113
 H         -23.570515      -71.418983      -21.114094
 H         -26.162191      -68.847359      -19.954262
 H         -24.878660      -68.824707      -21.166334
 H         -26.214952      -72.747238      -20.674437
 H         -24.924124      -73.252914      -21.766144
 H         -26.857288      -69.376678      -22.436678
 H         -27.311781      -70.659454      -21.109535
 H         -26.481249      -71.874931      -23.008928
 H         -25.090242      -71.059433      -23.016178
