20
 generated by VMD
 C         -29.349243      -90.249924      -25.081652
 N         -29.040413      -91.370872      -25.304075
 H         -32.384811      -90.848808      -26.848804
 H         -29.738523      -89.328430      -24.786880
 C         -33.174782      -90.744408      -27.561520
 C         -34.357044      -91.546265      -27.559080
 C         -33.032898      -89.733757      -28.647869
 C         -35.566673      -90.627289      -27.343212
 C         -34.083199      -88.697556      -28.336309
 C         -35.497349      -89.248474      -28.259834
 H         -34.291664      -92.144386      -26.657442
 H         -34.481712      -92.118904      -28.439720
 H         -32.053776      -89.261703      -28.681534
 H         -33.183903      -90.245758      -29.633612
 H         -35.775757      -90.193367      -26.393980
 H         -36.475735      -91.134224      -27.604885
 H         -33.960499      -87.971741      -29.137123
 H         -33.709366      -88.289200      -27.399370
 H         -36.165562      -88.453522      -27.886292
 H         -35.813522      -89.754021      -29.203642
