20
 generated by VMD
 C         -69.941559     -183.306870      -65.371254
 N         -69.597618     -182.399048      -65.995857
 H         -68.086693     -184.933243      -62.977196
 H         -70.232300     -184.146088      -64.739189
 C         -67.804436     -184.178223      -62.252373
 C         -67.995453     -184.494247      -60.746319
 C         -67.985916     -182.750900      -62.641327
 C         -67.306175     -183.539658      -59.788246
 C         -67.164459     -181.890411      -61.792519
 C         -67.366104     -182.115433      -60.336906
 H         -67.495918     -185.507904      -60.690815
 H         -69.072708     -184.582596      -60.702183
 H         -67.701889     -182.464676      -63.605751
 H         -69.069550     -182.594238      -62.512260
 H         -66.254379     -183.871231      -59.816559
 H         -67.725761     -183.637604      -58.787239
 H         -67.338768     -180.828720      -62.005856
 H         -66.171005     -182.041656      -62.097057
 H         -66.471634     -181.691528      -59.778088
 H         -68.306831     -181.669693      -59.863491
