20
 generated by VMD
 C         -70.290977     -182.754578      -65.887375
 N         -71.098045     -183.595001      -65.608635
 H         -67.487862     -182.334213      -63.134972
 H         -69.650490     -181.941818      -66.101555
 C         -67.250397     -182.071579      -62.122349
 C         -67.670845     -183.085556      -61.114933
 C         -67.030571     -180.660934      -61.609852
 C         -66.631783     -183.047623      -59.934753
 C         -65.993546     -180.568878      -60.529125
 C         -66.475121     -181.519104      -59.349155
 H         -67.614525     -184.039520      -61.527504
 H         -68.633255     -182.771103      -60.744915
 H         -66.839966     -180.053558      -62.476414
 H         -68.127983     -180.355087      -61.259186
 H         -65.764221     -183.450668      -60.476517
 H         -66.969666     -183.773209      -59.018318
 H         -65.801529     -179.586365      -60.088570
 H         -65.024574     -180.928650      -60.973869
 H         -65.766495     -181.609558      -58.547123
 H         -67.419746     -181.352905      -58.745895
