20
 generated by VMD
 C         -79.067680     -204.315445      -70.561333
 N         -80.016716     -204.904831      -70.614388
 H         -76.731071     -203.366302      -68.771469
 H         -78.102997     -203.825607      -70.290794
 C         -75.802299     -203.119324      -69.208794
 C         -75.832642     -202.049988      -70.253189
 C         -74.623306     -204.011673      -68.883507
 C         -74.408127     -201.434647      -70.506691
 C         -73.227371     -203.353516      -69.009148
 C         -73.238914     -202.461807      -70.352516
 H         -76.605064     -201.213257      -70.165741
 H         -76.074295     -202.550186      -71.189995
 H         -74.757751     -204.106354      -67.802246
 H         -74.644768     -204.899414      -69.581039
 H         -74.133461     -200.542938      -69.848351
 H         -74.386719     -201.101395      -71.573845
 H         -72.463211     -204.006012      -69.240768
 H         -73.043800     -202.662094      -68.142159
 H         -72.323517     -201.870590      -70.322296
 H         -73.413322     -203.101105      -71.174576
