20
 generated by VMD
 C          -4.444422      -20.944609        2.536578
 N          -4.975743      -19.984774        2.744432
 H          -5.052188      -19.326580       -0.214969
 H          -6.126097      -20.709187       -0.472873
 C          -5.922035      -19.689854       -0.808977
 C          -5.570178      -19.758490       -2.266523
 C          -7.218912      -18.850275       -0.626952
 C          -6.713247      -20.512133       -2.987699
 C          -8.401321      -19.715250       -1.168085
 C          -8.128240      -20.093430       -2.625187
 H          -4.600690      -20.339422       -2.432324
 H          -5.519753      -18.731388       -2.715326
 H          -7.356257      -18.757254        0.401269
 H          -7.135429      -17.901932       -1.136047
 H          -6.582046      -21.602999       -2.766062
 H          -6.608503      -20.363792       -4.056384
 H          -9.365638      -19.203396       -1.191000
 H          -8.591621      -20.644768       -0.566171
 H          -8.882587      -20.872816       -2.968318
 H          -8.337014      -19.123884       -3.131242
