20
 generated by VMD
 C         -19.559904      -61.646065      -16.221611
 N         -20.117556      -61.022308      -17.030895
 H         -21.726744      -63.020203      -17.742823
 H         -19.074459      -62.039917      -15.440393
 C         -22.719095      -63.511883      -17.598207
 C         -23.607664      -63.549026      -18.808739
 C         -23.162554      -63.664818      -16.173174
 C         -24.684855      -64.615875      -18.427822
 C         -24.103350      -64.894920      -16.042608
 C         -25.264051      -64.920036      -17.072021
 H         -23.135098      -63.749897      -19.739626
 H         -24.059639      -62.582382      -19.019691
 H         -22.404112      -63.941147      -15.547050
 H         -23.507170      -62.707127      -15.767375
 H         -24.260260      -65.542641      -18.818876
 H         -25.567459      -64.360748      -18.914730
 H         -24.443132      -65.065201      -14.989648
 H         -23.597460      -65.883705      -16.251060
 H         -25.761055      -65.837875      -16.905567
 H         -25.966003      -64.118103      -16.757458
