20
 generated by VMD
 C         -46.734371     -124.909531      -38.126755
 N         -47.154526     -124.498703      -37.130135
 H         -44.648075     -122.527611      -37.625046
 H         -46.162140     -125.026489      -39.087753
 C         -44.777504     -122.271309      -38.726597
 C         -43.531448     -122.461617      -39.572285
 C         -45.912418     -121.561806      -39.387672
 C         -43.880219     -122.951759      -40.927223
 C         -46.152500     -122.023041      -40.839672
 C         -44.806545     -121.855782      -41.566624
 H         -43.077763     -123.380478      -39.065971
 H         -42.780693     -121.691002      -39.591286
 H         -46.792690     -121.673294      -38.849537
 H         -45.645332     -120.464020      -39.387405
 H         -44.157993     -123.991470      -40.981464
 H         -42.936340     -123.009270      -41.519581
 H         -46.805786     -121.334328      -41.429546
 H         -46.529423     -123.139740      -41.098644
 H         -44.959915     -122.070946      -42.646862
 H         -44.418442     -120.856163      -41.429131
