20
 generated by VMD
 C         -30.968058      -92.758011      -26.197197
 N         -30.459099      -92.549721      -25.149731
 H         -32.448643      -89.950775      -26.621336
 H         -31.381908      -93.100044      -27.132217
 C         -33.275642      -90.236145      -27.236410
 C         -33.968208      -91.655655      -27.109562
 C         -33.373718      -89.509659      -28.484560
 C         -35.228287      -91.652328      -27.865911
 C         -34.650150      -89.643631      -29.281723
 C         -34.970901      -91.195107      -29.315996
 H         -34.028004      -91.888672      -26.000040
 H         -33.260998      -92.256050      -27.631004
 H         -33.237610      -88.458603      -28.275053
 H         -32.578087      -89.732666      -29.151474
 H         -35.990059      -91.022903      -27.467211
 H         -35.627716      -92.732788      -27.799246
 H         -34.394543      -89.237785      -30.317488
 H         -35.437477      -89.040382      -28.785334
 H         -35.836742      -91.209610      -29.989607
 H         -34.106201      -91.814575      -29.796913
