20
 generated by VMD
 C         -70.301155     -182.729858      -65.646812
 N         -70.969582     -183.645111      -65.595016
 H         -67.937325     -181.823227      -63.161640
 H         -69.729057     -181.846313      -65.654999
 C         -67.552887     -181.751404      -62.102123
 C         -67.525658     -182.937180      -61.154545
 C         -67.031960     -180.440216      -61.631001
 C         -66.629791     -183.030319      -59.935726
 C         -65.935349     -180.582901      -60.499634
 C         -66.337120     -181.558792      -59.317993
 H         -67.289368     -183.818985      -61.906933
 H         -68.587700     -183.037903      -60.722603
 H         -66.555550     -179.810913      -62.432899
 H         -67.776337     -179.876373      -61.172649
 H         -65.659653     -183.467285      -60.088791
 H         -67.002777     -183.741531      -59.354271
 H         -65.735474     -179.534454      -60.232643
 H         -65.021675     -181.008545      -60.893806
 H         -65.452179     -181.648117      -58.593365
 H         -67.140076     -181.104752      -58.819462
