20
 generated by VMD
 C         -71.187523     -198.931366      -64.487373
 N         -70.374931     -198.601547      -65.267967
 H         -72.431854     -196.555222      -66.396332
 H         -71.984917     -199.327911      -63.878235
 C         -73.029037     -195.946426      -67.072701
 C         -73.259575     -194.532059      -66.612648
 C         -73.541512     -196.471848      -68.326309
 C         -73.326065     -193.566330      -67.873131
 C         -74.776924     -195.547516      -68.738907
 C         -74.306358     -194.096771      -68.985588
 H         -72.354591     -194.216293      -66.014679
 H         -74.100677     -194.607376      -66.024872
 H         -72.808136     -196.540054      -69.139069
 H         -73.680199     -197.574020      -68.202446
 H         -72.296509     -193.541611      -68.313889
 H         -73.603218     -192.529678      -67.485359
 H         -75.518501     -195.631027      -67.870117
 H         -75.363518     -195.791046      -69.637161
 H         -73.808174     -193.929993      -69.908463
 H         -75.252014     -193.388855      -68.869965
