20
 generated by VMD
 C         -56.161690     -150.190613      -47.139629
 N         -57.118835     -150.283432      -46.441284
 H         -53.456459     -147.800598      -47.373978
 H         -55.194073     -150.098175      -47.701050
 C         -53.747406     -147.607666      -48.427803
 C         -53.100506     -148.146072      -49.698559
 C         -54.504135     -146.327911      -48.610970
 C         -54.056271     -147.986115      -50.943295
 C         -55.417679     -146.230728      -49.837002
 C         -54.730106     -146.642990      -51.041904
 H         -52.952484     -149.157944      -49.615192
 H         -52.089764     -147.644241      -49.646393
 H         -55.177612     -146.145493      -47.761074
 H         -53.889706     -145.324402      -48.699219
 H         -54.720169     -148.833649      -51.024120
 H         -53.321838     -148.131149      -51.725483
 H         -55.701523     -145.142258      -49.994274
 H         -56.262344     -146.919678      -49.733349
 H         -55.370037     -146.588379      -51.910370
 H         -53.853600     -145.997116      -51.244164
