20
 generated by VMD
 C         -69.029099     -180.675537      -62.556355
 N         -70.042038     -180.377182      -62.116005
 H         -66.759926     -181.052032      -59.368217
 H         -68.049599     -180.940735      -62.911907
 C         -66.377922     -180.210281      -59.847618
 C         -65.160095     -180.303543      -60.701778
 C         -66.913025     -178.866196      -59.428452
 C         -64.877129     -178.987808      -61.605518
 C         -66.455605     -177.566010      -60.203693
 C         -65.079079     -177.677200      -60.856918
 H         -65.453735     -181.033081      -61.400181
 H         -64.332802     -180.638214      -60.200436
 H         -67.982323     -178.866180      -59.422897
 H         -66.633232     -178.961121      -58.330742
 H         -65.550774     -179.019745      -62.427826
 H         -63.888073     -178.983353      -62.086510
 H         -66.346428     -176.725128      -59.483543
 H         -67.197769     -177.266129      -60.950661
 H         -64.721573     -176.774200      -61.443317
 H         -64.322701     -177.719055      -60.100071
