20
 generated by VMD
 C         -21.636364      -65.802170      -16.861526
 N         -20.984861      -66.481232      -16.190126
 H         -24.177872      -63.966473      -18.174381
 H         -22.226847      -65.510170      -17.720572
 C         -24.400803      -64.968636      -18.394499
 C         -24.326252      -65.407715      -19.886215
 C         -25.403778      -65.739868      -17.533289
 C         -24.503853      -66.918510      -20.092087
 C         -25.284861      -67.224586      -17.650608
 C         -25.219160      -67.805542      -19.041752
 H         -23.330437      -64.998482      -20.218782
 H         -24.946182      -64.925385      -20.533993
 H         -25.138060      -65.441338      -16.521856
 H         -26.486158      -65.472237      -17.746180
 H         -23.457108      -67.350540      -20.267570
 H         -24.944267      -66.966141      -21.159540
 H         -26.077566      -67.770370      -17.136698
 H         -24.377682      -67.366287      -16.983572
 H         -24.739174      -68.794670      -19.020134
 H         -26.167784      -68.097221      -19.423483
