20
 generated by VMD
 C         -13.608763      -43.139835       -6.221761
 N         -12.897552      -42.811787       -7.038592
 H         -14.572951      -44.454288       -8.767796
 H         -14.491179      -43.095310       -9.796247
 C         -15.089658      -43.972294       -9.535312
 C         -16.432716      -43.421410       -9.141257
 C         -15.171038      -44.950447      -10.737505
 C         -17.069002      -42.674686      -10.301374
 C         -15.652740      -44.094833      -11.949307
 C         -16.994884      -43.433331      -11.676776
 H         -16.309980      -42.646793       -8.308160
 H         -17.079451      -44.270790       -8.805564
 H         -14.121867      -45.283318      -10.957486
 H         -15.875557      -45.748238      -10.540377
 H         -16.486115      -41.741848      -10.480131
 H         -18.100985      -42.388577      -10.032731
 H         -15.794124      -44.726669      -12.852964
 H         -14.842606      -43.352207      -12.282522
 H         -17.296000      -42.834484      -12.520459
 H         -17.770031      -44.156887      -11.625328
