20
 generated by VMD
 C         -38.135559     -113.955101      -35.428291
 N         -38.407181     -115.082649      -35.316212
 H         -41.429924     -114.803795      -36.347618
 H         -38.038490     -112.834122      -35.530319
 C         -42.450382     -114.737373      -36.607689
 C         -42.630768     -115.019287      -38.106869
 C         -43.528206     -114.670273      -35.650105
 C         -44.016235     -115.627411      -38.466145
 C         -44.649452     -115.611549      -35.902641
 C         -45.147446     -115.431213      -37.463982
 H         -41.815548     -115.656723      -38.424183
 H         -42.650688     -114.013054      -38.444363
 H         -43.233582     -114.764549      -34.566586
 H         -43.880310     -113.621056      -35.559048
 H         -43.768452     -116.712326      -38.758820
 H         -44.253635     -115.093964      -39.382801
 H         -45.399754     -115.587303      -35.116600
 H         -44.423695     -116.642395      -35.810303
 H         -45.941048     -116.187958      -37.657749
 H         -45.496777     -114.439850      -37.355396
