20
 generated by VMD
 C         -50.046505     -130.589157      -45.864037
 N         -50.905586     -129.974594      -45.396301
 H         -47.581657     -132.336502      -44.351826
 H         -49.217865     -131.232391      -46.220860
 C         -48.056576     -132.179749      -43.433613
 C         -48.502781     -133.381042      -42.810623
 C         -48.388832     -130.881775      -42.742222
 C         -47.962933     -133.441498      -41.370419
 C         -47.773891     -130.848099      -41.436970
 C         -48.157410     -132.113235      -40.565369
 H         -47.904675     -134.276901      -43.277729
 H         -49.552193     -133.512726      -42.945168
 H         -48.043949     -130.044250      -43.340935
 H         -49.558750     -130.815628      -42.741955
 H         -46.859482     -133.606049      -41.358707
 H         -48.376842     -134.232254      -40.711353
 H         -48.134041     -129.863876      -40.933784
 H         -46.683849     -130.808624      -41.415470
 H         -47.558838     -132.161682      -39.679287
 H         -49.191895     -131.867844      -40.284557
