20
 generated by VMD
 C         -20.306883      -56.318680      -16.787592
 N         -21.412369      -56.067585      -17.130550
 H         -22.910749      -59.047272      -16.864302
 H         -19.261850      -56.469337      -16.281574
 C         -22.213543      -59.414635      -16.092611
 C         -22.392748      -59.234161      -14.645365
 C         -21.728132      -60.828869      -16.528168
 C         -21.154903      -59.692543      -13.912978
 C         -20.733248      -61.599064      -15.617689
 C         -20.893286      -61.160046      -14.170533
 H         -23.297392      -59.838413      -14.296400
 H         -22.582060      -58.187180      -14.456378
 H         -22.617231      -61.412918      -16.758682
 H         -21.267151      -60.692574      -17.493626
 H         -21.362389      -59.650757      -12.815896
 H         -20.325748      -59.118210      -14.261929
 H         -19.740797      -61.407913      -16.045746
 H         -21.017746      -62.663872      -15.662986
 H         -21.630211      -61.733822      -13.547643
 H         -19.967131      -61.352856      -13.667931
