20
 generated by VMD
 C         -67.623856     -179.509903      -58.550880
 N         -68.446243     -180.229767      -58.188229
 H         -66.895416     -176.542953      -59.620480
 H         -66.800446     -178.857239      -58.833328
 C         -66.055832     -175.979446      -59.961151
 C         -65.947487     -175.081253      -61.184010
 C         -64.677010     -176.530838      -59.484585
 C         -65.024414     -173.934891      -60.851730
 C         -63.633018     -175.371780      -59.412937
 C         -63.622238     -174.493301      -60.636169
 H         -67.007652     -174.653687      -61.349747
 H         -65.632248     -175.746536      -62.030697
 H         -64.624641     -177.006348      -58.572483
 H         -64.237823     -177.232819      -60.173557
 H         -65.458038     -173.298813      -59.967693
 H         -64.943596     -173.417282      -61.825027
 H         -62.615650     -175.642868      -58.961803
 H         -64.041840     -174.760345      -58.607304
 H         -62.894032     -173.715073      -60.448112
 H         -63.396851     -175.217773      -61.473473
