20
 generated by VMD
 C         -49.397881     -133.015854      -46.892834
 N         -48.441116     -132.975906      -47.519859
 H         -48.281151     -134.326981      -44.275169
 H         -50.331638     -133.339386      -46.448490
 C         -49.235722     -134.839417      -43.969013
 C         -49.572594     -136.262802      -44.321594
 C         -50.344727     -134.064865      -43.179020
 C         -50.163639     -137.058762      -43.164265
 C         -50.884171     -134.907013      -41.962032
 C         -51.313438     -136.280991      -42.459534
 H         -48.687252     -136.703522      -44.716587
 H         -50.309471     -136.174683      -45.214520
 H         -49.850346     -133.223480      -42.784725
 H         -51.140820     -133.669556      -43.819378
 H         -49.381786     -137.323380      -42.459194
 H         -50.616726     -138.058304      -43.385197
 H         -51.789917     -134.454697      -41.409637
 H         -50.140530     -135.134918      -41.172855
 H         -51.551998     -136.745850      -41.530033
 H         -52.259743     -136.210114      -43.064007
