20
 generated by VMD
 C         -69.014587     -180.620148      -61.011787
 N         -69.813774     -181.185089      -60.417839
 H         -66.941765     -178.469299      -59.470779
 H         -68.271172     -180.153061      -61.651272
 C         -66.308868     -177.706482      -59.869267
 C         -65.872833     -177.797333      -61.351841
 C         -65.381538     -177.236618      -58.728203
 C         -65.024757     -176.512192      -61.669701
 C         -64.476967     -176.088776      -59.298306
 C         -63.886215     -176.297516      -60.685818
 H         -66.732155     -178.045578      -61.993996
 H         -65.223862     -178.753937      -61.373547
 H         -65.962242     -176.741302      -58.001884
 H         -64.733894     -178.011597      -58.231071
 H         -65.664322     -175.615250      -61.639915
 H         -64.468048     -176.759262      -62.521954
 H         -63.527367     -175.886078      -58.721420
 H         -65.100868     -175.168533      -59.341518
 H         -63.237644     -175.499847      -60.815090
 H         -63.173653     -177.121429      -60.663292
