20
 generated by VMD
 C         -68.502731     -179.896271      -59.072826
 N         -68.236168     -180.145294      -60.156620
 H         -67.448494     -176.641815      -59.702988
 H         -68.655785     -179.583679      -58.023819
 C         -66.397316     -176.890137      -59.994354
 C         -66.027542     -176.395248      -61.464054
 C         -65.260620     -177.157715      -59.033356
 C         -65.002419     -175.316650      -61.409695
 C         -64.238541     -176.063049      -59.129730
 C         -63.806114     -175.825378      -60.591984
 H         -66.781876     -175.917114      -62.029701
 H         -65.737633     -177.260666      -62.058468
 H         -65.671471     -177.181946      -57.993977
 H         -64.784317     -178.149673      -59.238632
 H         -65.301384     -174.460831      -60.619942
 H         -64.720734     -174.736313      -62.306526
 H         -63.452961     -176.469894      -58.558201
 H         -64.608147     -175.183029      -58.607540
 H         -63.130692     -174.992722      -60.578083
 H         -63.253525     -176.607208      -61.113762
