20
 generated by VMD
 C         -49.982155     -143.086441      -44.828075
 N         -49.097431     -143.360367      -45.468693
 H         -51.912846     -140.889618      -45.423141
 H         -50.847401     -142.939484      -44.197094
 C         -52.651829     -141.133484      -46.168236
 C         -52.097076     -141.244156      -47.683998
 C         -54.081600     -140.878281      -46.070518
 C         -53.037804     -142.155853      -48.490910
 C         -54.915184     -141.761490      -46.991135
 C         -54.475491     -141.782028      -48.415134
 H         -51.074749     -141.505508      -47.850811
 H         -52.179958     -140.246216      -48.232090
 H         -54.364967     -141.111191      -45.075317
 H         -54.326923     -139.869659      -46.169914
 H         -52.889130     -143.275558      -48.044018
 H         -52.615639     -142.211716      -49.546406
 H         -55.927914     -141.308792      -46.952923
 H         -55.034321     -142.872375      -46.764931
 H         -55.110950     -142.535538      -48.989304
 H         -54.743092     -140.755722      -48.834732
