20
 generated by VMD
 C         -57.007500     -163.713333      -56.715275
 N         -57.252583     -162.719391      -57.288902
 H         -60.079765     -163.828125      -54.429317
 H         -56.917973     -164.653519      -56.181904
 C         -60.769543     -164.578842      -54.623360
 C         -61.566959     -165.199539      -53.501602
 C         -61.548992     -164.666840      -55.921806
 C         -62.987003     -164.571106      -53.269272
 C         -62.775135     -163.823212      -55.804394
 C         -63.753754     -164.221512      -54.591743
 H         -60.911884     -165.335495      -52.574265
 H         -61.666943     -166.295151      -53.723511
 H         -60.882294     -164.198120      -56.704372
 H         -61.632416     -165.781723      -56.159115
 H         -62.853966     -163.606171      -52.759148
 H         -63.585857     -165.324997      -52.677654
 H         -63.375332     -163.902893      -56.647118
 H         -62.590496     -162.805023      -55.848637
 H         -64.358658     -163.392731      -54.337566
 H         -64.350296     -165.049866      -54.832973
