20
 generated by VMD
 C         -22.792904      -52.382397      -11.986423
 N         -23.062878      -52.525581      -10.922373
 H         -19.903624      -53.017838      -14.072992
 H         -22.741785      -52.343464      -13.244400
 C         -18.929079      -52.767273      -13.863845
 C         -18.054695      -51.894367      -14.757728
 C         -18.239614      -53.719505      -12.946167
 C         -16.589428      -52.346962      -14.589214
 C         -17.024263      -53.209255      -12.246510
 C         -16.232157      -52.225880      -13.089069
 H         -18.070061      -50.864948      -14.536095
 H         -18.454006      -52.007198      -15.779192
 H         -18.980768      -54.226246      -12.242551
 H         -17.869516      -54.544548      -13.559855
 H         -15.881726      -51.633438      -15.084815
 H         -16.401108      -53.358223      -15.030076
 H         -16.441162      -54.019859      -11.900845
 H         -17.295746      -52.664272      -11.286219
 H         -16.465813      -51.212376      -12.808147
 H         -15.159493      -52.267433      -12.942012
