20
 generated by VMD
 C          -2.611518       -9.760348        0.062523
 N          -2.020660       -8.830867        0.312392
 H          -2.079054      -11.442748        2.628833
 H          -2.660509      -12.226066        4.148477
 C          -2.806765      -12.041348        3.087151
 C          -2.544814      -13.445201        2.434045
 C          -4.181618      -11.572693        2.923560
 C          -3.576336      -14.495869        2.862512
 C          -5.263703      -12.613881        3.240323
 C          -4.981865      -13.994171        2.579270
 H          -1.531073      -13.831374        2.795189
 H          -2.542866      -13.378252        1.340083
 H          -4.325567      -10.630724        3.586124
 H          -4.395441      -11.325718        1.861555
 H          -3.517170      -14.734182        3.941891
 H          -3.496257      -15.460658        2.293317
 H          -6.218196      -12.163624        2.929951
 H          -5.245018      -12.714985        4.309338
 H          -5.586337      -14.669216        3.170733
 H          -5.267709      -14.028039        1.549197
