20
 generated by VMD
 C         -57.109089     -150.991516      -48.168892
 N         -58.246731     -151.012894      -48.566650
 H         -54.183311     -148.688034      -47.272743
 H         -56.034908     -150.799026      -47.879063
 C         -54.211525     -148.551071      -48.348206
 C         -53.521336     -149.355850      -49.392609
 C         -54.577049     -147.188339      -48.738659
 C         -54.386944     -149.342773      -50.664703
 C         -55.300438     -147.076263      -50.174248
 C         -54.543232     -147.896255      -51.238750
 H         -53.627907     -150.370956      -49.035748
 H         -52.501873     -149.069427      -49.321224
 H         -55.212120     -146.687698      -47.949280
 H         -53.678745     -146.628723      -48.837982
 H         -55.387836     -149.764954      -50.376625
 H         -53.977383     -149.995270      -51.424179
 H         -55.184383     -145.941147      -50.427876
 H         -56.271442     -147.386215      -50.089790
 H         -55.082027     -147.757614      -52.221127
 H         -53.561913     -147.463104      -51.192268
