20
 generated by VMD
 C         -28.532671      -86.547913      -26.640596
 N         -27.579792      -87.256271      -26.614861
 H         -31.063356      -87.684776      -25.097963
 H         -29.349958      -85.963730      -26.839289
 C         -31.995680      -87.791672      -25.633104
 C         -33.108784      -88.083107      -24.690281
 C         -32.126713      -87.884766      -27.116665
 C         -34.464699      -87.573685      -25.249235
 C         -33.520370      -87.449249      -27.512680
 C         -34.622417      -88.057892      -26.599798
 H         -32.852955      -87.495491      -23.716925
 H         -33.359047      -89.192520      -24.536642
 H         -31.456463      -87.209534      -27.664276
 H         -32.056240      -88.881569      -27.549772
 H         -34.577461      -86.527405      -25.178949
 H         -35.286320      -87.854767      -24.606205
 H         -33.559902      -87.663803      -28.592922
 H         -33.578201      -86.310249      -27.509609
 H         -35.574970      -87.733688      -27.130259
 H         -34.498249      -89.257042      -26.680861
