20
 generated by VMD
 C         -79.575356     -206.798965      -74.304146
 N         -80.407150     -207.505707      -74.660942
 H         -76.597404     -207.353683      -73.227371
 H         -78.686989     -206.255676      -73.872475
 C         -76.598381     -207.821793      -72.233292
 C         -75.473923     -207.301773      -71.400520
 C         -77.734421     -208.595840      -71.588432
 C         -75.766617     -207.099045      -69.933289
 C         -77.858276     -208.484161      -69.946083
 C         -76.475288     -208.472061      -69.406822
 H         -75.091644     -206.356598      -71.862213
 H         -74.687149     -208.042847      -71.499413
 H         -78.647469     -208.106735      -72.069260
 H         -77.676659     -209.643066      -71.910011
 H         -76.317360     -206.194565      -69.538284
 H         -74.821892     -207.004852      -69.357552
 H         -78.589989     -209.296768      -69.703041
 H         -78.379646     -207.565811      -69.722763
 H         -76.390587     -208.359756      -68.392517
 H         -75.937225     -209.369141      -69.778481
