20
 generated by VMD
 C         -19.067589      -63.096222      -16.931475
 N         -20.217274      -62.849350      -16.966780
 H         -22.622944      -64.047066      -17.064936
 H         -18.133413      -63.478653      -17.125669
 C         -23.697458      -64.194702      -17.268476
 C         -24.177130      -64.106483      -18.687819
 C         -24.477818      -65.134430      -16.339628
 C         -24.604298      -65.482048      -19.287619
 C         -25.033934      -66.434883      -17.022312
 C         -25.604387      -66.156723      -18.378256
 H         -23.665028      -63.397488      -19.384565
 H         -25.126236      -63.523781      -18.621544
 H         -23.807901      -65.374588      -15.540905
 H         -25.337557      -64.587975      -15.975106
 H         -23.744308      -66.188194      -19.403984
 H         -25.097691      -65.407036      -20.282150
 H         -25.677158      -67.007896      -16.323765
 H         -24.125046      -67.055527      -17.131693
 H         -25.820114      -67.118988      -18.969475
 H         -26.514849      -65.532753      -18.349613
