20
 generated by VMD
 C         -50.031338     -143.037704      -44.930637
 N         -49.027573     -143.319534      -45.466709
 H         -51.880711     -140.698730      -45.611774
 H         -50.894718     -142.627808      -44.482800
 C         -52.620945     -141.126785      -46.270451
 C         -52.096558     -141.130844      -47.613129
 C         -54.082127     -140.814301      -46.055832
 C         -52.934658     -142.120667      -48.442921
 C         -55.030865     -141.695236      -46.852722
 C         -54.414162     -141.844543      -48.351761
 H         -51.057980     -141.338959      -47.679760
 H         -52.152729     -140.067352      -47.960506
 H         -54.260376     -140.794037      -45.019276
 H         -54.342644     -139.893936      -46.350872
 H         -52.651806     -143.187210      -48.019169
 H         -52.597939     -142.141525      -49.521183
 H         -56.038971     -141.279266      -46.713936
 H         -55.035614     -142.798508      -46.649418
 H         -54.988899     -142.650024      -48.881790
 H         -54.576454     -140.866821      -48.891922
