20
 generated by VMD
 C         -67.666290     -179.542114      -58.663616
 N         -68.135925     -179.727554      -59.685360
 H         -67.370049     -177.076691      -60.054089
 H         -67.135918     -179.389862      -57.707821
 C         -66.456337     -176.619339      -60.073139
 C         -66.054771     -175.972305      -61.366222
 C         -65.344612     -177.179459      -59.299644
 C         -65.004829     -174.885590      -61.248653
 C         -64.196327     -176.071854      -59.121910
 C         -63.789585     -175.372986      -60.505722
 H         -66.917778     -175.609619      -61.920803
 H         -65.761696     -176.878067      -61.896198
 H         -65.654549     -177.404404      -58.248863
 H         -64.928040     -178.109787      -59.745697
 H         -65.409027     -174.050568      -60.715763
 H         -64.842453     -174.484146      -62.196152
 H         -63.347134     -176.494308      -58.622990
 H         -64.556976     -175.216537      -58.521969
 H         -62.875179     -174.771698      -60.450020
 H         -63.451988     -176.266220      -60.981647
