20
 generated by VMD
 C          -1.978152      -14.116803        2.098253
 N          -1.657893      -15.174703        1.942388
 H          -3.786883      -16.555332        0.696415
 H          -4.459162      -17.142944       -0.796196
 C          -4.729061      -16.867971        0.209254
 C          -5.658893      -15.681315        0.078509
 C          -5.386054      -18.050205        0.872839
 C          -7.014828      -16.005285       -0.536433
 C          -6.691662      -18.438694        0.117182
 C          -7.697654      -17.239628        0.154722
 H          -5.202259      -14.921717       -0.544764
 H          -5.832105      -15.262075        1.090584
 H          -4.708460      -18.830797        0.871215
 H          -5.661768      -17.809830        1.859282
 H          -6.914759      -16.204193       -1.631257
 H          -7.682236      -15.080016       -0.377137
 H          -7.085268      -19.265835        0.701085
 H          -6.451925      -18.819975       -0.913419
 H          -8.513850      -17.503370       -0.514566
 H          -8.099256      -16.986279        1.112864
