20
 generated by VMD
 C         -68.222031     -193.627701      -65.355049
 N         -68.225471     -194.814758      -65.243187
 H         -70.869843     -192.233582      -67.723480
 H         -68.265045     -192.543564      -65.570053
 C         -71.701538     -192.156342      -67.029732
 C         -71.981270     -190.870956      -66.246445
 C         -72.410339     -193.418808      -66.594742
 C         -73.508026     -190.701843      -66.178581
 C         -73.281929     -193.118301      -65.244156
 C         -74.130676     -191.795639      -65.402206
 H         -71.445709     -190.167328      -66.808281
 H         -71.460800     -190.894745      -65.287926
 H         -73.019440     -193.859329      -67.366219
 H         -71.638641     -194.110779      -66.310707
 H         -73.853508     -190.784592      -67.251907
 H         -73.742188     -189.685867      -65.739029
 H         -72.615364     -193.081482      -64.354431
 H         -74.146446     -193.834000      -65.083778
 H         -75.172874     -191.985657      -65.937508
 H         -74.395584     -191.459488      -64.430702
