20
 generated by VMD
 C          -1.949460      -14.060501        2.161260
 N          -1.683588      -15.087265        1.823188
 H          -3.772906      -16.640493        0.703568
 H          -4.427900      -17.154678       -0.827732
 C          -4.698875      -16.874687        0.174687
 C          -5.644712      -15.689123        0.195952
 C          -5.398366      -18.049959        0.873465
 C          -6.993465      -15.954695       -0.471600
 C          -6.718113      -18.431091        0.178175
 C          -7.641500      -17.214655        0.059273
 H          -5.137246      -14.840381       -0.300951
 H          -5.795723      -15.335758        1.212891
 H          -4.806416      -18.873735        1.029673
 H          -5.600407      -17.767365        1.850296
 H          -6.797729      -16.124166       -1.571005
 H          -7.685917      -15.042096       -0.434276
 H          -7.282852      -19.229120        0.704024
 H          -6.565299      -18.796875       -0.872936
 H          -8.564085      -17.471189       -0.435187
 H          -7.890547      -17.045902        1.089630
