20
 generated by VMD
 C         -57.446365     -162.388870      -56.204437
 N         -57.146183     -162.182541      -57.358608
 H         -59.624306     -165.055374      -55.170113
 H         -57.616066     -162.574326      -55.160362
 C         -60.644592     -164.669724      -54.830135
 C         -60.861835     -164.395386      -53.344326
 C         -61.727161     -164.609314      -55.855381
 C         -62.101791     -163.418427      -53.031990
 C         -62.827469     -163.607727      -55.418350
 C         -63.301895     -163.793915      -53.944767
 H         -59.901379     -163.912766      -53.018890
 H         -60.871914     -165.330582      -52.665291
 H         -61.174648     -164.337936      -56.815670
 H         -62.160835     -165.539871      -56.106777
 H         -61.751774     -162.448975      -53.355324
 H         -62.397957     -163.381012      -51.982216
 H         -63.632641     -163.529938      -56.219955
 H         -62.334606     -162.607697      -55.722500
 H         -64.131607     -163.026993      -54.007874
 H         -63.713535     -164.828583      -53.907871
