20
 generated by VMD
 C         -72.589790     -198.729553      -65.636543
 N         -73.608719     -199.150803      -65.990936
 H         -70.958527     -196.425644      -67.358795
 H         -71.700424     -198.460251      -65.029404
 C         -71.918060     -196.109680      -67.765114
 C         -72.872620     -195.144592      -67.078316
 C         -72.445549     -196.722610      -69.052406
 C         -74.337502     -195.111084      -67.642838
 C         -73.926476     -197.300858      -68.947243
 C         -74.866478     -196.471390      -67.996841
 H         -72.337578     -194.163788      -67.119171
 H         -73.125420     -195.607941      -66.115547
 H         -72.360359     -195.923401      -69.835533
 H         -71.825912     -197.590393      -69.254303
 H         -74.362061     -194.506882      -68.537193
 H         -75.112198     -194.632248      -66.997360
 H         -73.955223     -198.413025      -68.755089
 H         -74.268524     -197.156982      -69.957138
 H         -75.825134     -196.422684      -68.525818
 H         -75.054214     -197.185440      -67.086960
