20
 generated by VMD
 C         -49.981476     -143.516891      -44.497643
 N         -49.239025     -143.516037      -45.409389
 H         -51.933414     -141.281647      -45.731476
 H         -50.553753     -143.344055      -43.620842
 C         -52.755219     -141.561646      -46.417156
 C         -52.208427     -141.586411      -47.747131
 C         -54.149464     -141.121658      -46.185089
 C         -53.095699     -142.233002      -48.759033
 C         -55.096924     -141.865631      -47.137939
 C         -54.497860     -141.737823      -48.620453
 H         -51.235443     -142.077118      -47.671028
 H         -51.971546     -140.454254      -48.051323
 H         -54.443977     -141.418915      -45.147846
 H         -54.283665     -140.008865      -46.272114
 H         -53.272747     -143.334534      -48.703663
 H         -52.539310     -141.988052      -49.667191
 H         -56.107246     -141.497498      -47.295631
 H         -55.101963     -142.909378      -46.729057
 H         -55.208488     -142.234116      -49.298847
 H         -54.505806     -140.659760      -48.749420
