20
 generated by VMD
 C          -1.654248      -13.077297        0.647133
 N          -0.815837      -13.811218        0.644525
 H          -3.957925      -14.393100        1.945631
 H          -4.730726      -14.157332        0.377717
 C          -4.747253      -14.786939        1.297251
 C          -6.004335      -14.703746        2.137492
 C          -4.400203      -16.298779        0.985227
 C          -7.177668      -15.334866        1.355006
 C          -5.534671      -17.005102        0.255130
 C          -6.816503      -16.778551        0.999438
 H          -6.232209      -13.690954        2.425741
 H          -5.825161      -15.294447        3.021683
 H          -3.511597      -16.262791        0.273928
 H          -4.144644      -16.813528        1.956819
 H          -7.310575      -14.678990        0.456890
 H          -8.112294      -15.325009        1.980928
 H          -5.331544      -18.123741        0.185065
 H          -5.561829      -16.517105       -0.739020
 H          -7.651685      -17.219868        0.473022
 H          -6.748134      -17.266306        1.991413
