20
 generated by VMD
 C         -20.121460      -56.093792      -16.708620
 N         -21.230614      -56.348465      -16.712030
 H         -22.266008      -59.317085      -17.303892
 H         -19.019304      -55.939968      -17.050575
 C         -22.363304      -59.927559      -16.435682
 C         -22.461462      -59.211815      -15.054950
 C         -22.016487      -61.396389      -16.483101
 C         -21.456154      -59.758064      -14.064623
 C         -20.684235      -61.629986      -15.656585
 C         -20.970793      -61.176117      -14.177864
 H         -23.527815      -59.417961      -14.686465
 H         -22.337137      -58.122166      -15.060533
 H         -22.842392      -61.959503      -16.089798
 H         -21.915297      -61.687988      -17.511456
 H         -21.841503      -59.574360      -13.057874
 H         -20.565189      -59.220108      -14.191997
 H         -19.971933      -60.843456      -16.043823
 H         -20.371450      -62.718899      -15.799243
 H         -21.761503      -61.803314      -13.728161
 H         -20.177608      -61.273312      -13.441531
