20
 generated by VMD
 C         -61.092751     -156.187500      -54.916187
 N         -60.267826     -155.657791      -55.508270
 H         -59.750664     -156.587189      -52.029457
 H         -61.842705     -156.858444      -54.472866
 C         -58.686436     -156.605347      -51.702271
 C         -57.950241     -155.311813      -51.485489
 C         -57.881435     -157.860184      -51.946083
 C         -56.625580     -155.515991      -50.534931
 C         -56.581955     -158.000992      -51.214527
 C         -55.784443     -156.664581      -51.146904
 H         -58.677116     -154.557373      -51.085545
 H         -57.546234     -154.857086      -52.417847
 H         -58.514698     -158.663010      -51.843109
 H         -57.605045     -157.868729      -53.003052
 H         -57.028053     -155.540405      -49.423599
 H         -55.884007     -154.699875      -50.429295
 H         -55.928001     -158.821625      -51.511063
 H         -56.994858     -158.389114      -50.286167
 H         -54.813915     -156.899536      -50.558189
 H         -55.467503     -156.294250      -52.056240
