20
 generated by VMD
 C         -38.310524     -109.666634      -36.484688
 N         -37.640877     -109.023903      -35.825348
 H         -41.585068     -111.194489      -37.355927
 H         -38.951073     -110.306282      -37.080276
 C         -41.660358     -111.515091      -36.335735
 C         -42.074123     -112.983406      -36.265739
 C         -41.932522     -110.751442      -35.120708
 C         -42.028606     -113.648628      -34.845394
 C         -41.996361     -111.506592      -33.694595
 C         -42.750313     -112.758293      -33.923592
 H         -41.407509     -113.620956      -36.895035
 H         -43.063232     -113.099037      -36.853947
 H         -41.189270     -109.886292      -35.025238
 H         -42.979229     -110.408836      -35.301304
 H         -40.966297     -113.707565      -34.437950
 H         -42.437363     -114.591660      -34.782013
 H         -42.474697     -110.850334      -32.941185
 H         -40.943371     -111.748024      -33.365807
 H         -42.884563     -113.391678      -32.967850
 H         -43.797443     -112.601723      -34.405151
