20
 generated by VMD
 C         -70.072754     -181.049576      -62.374966
 N         -70.552269     -180.045822      -62.659683
 H         -66.753960     -181.757324      -60.467072
 H         -69.619820     -182.006332      -62.224251
 C         -66.320580     -180.827820      -60.385426
 C         -64.820251     -180.638824      -60.445942
 C         -67.182610     -179.609543      -60.328110
 C         -64.297211     -179.205551      -60.824333
 C         -66.639450     -178.403595      -60.971432
 C         -65.254036     -178.032745      -60.584400
 H         -64.225060     -181.410904      -61.004570
 H         -64.400566     -180.908051      -59.464348
 H         -68.142151     -179.935791      -60.863129
 H         -67.412270     -179.489410      -59.284443
 H         -64.060425     -179.196503      -61.840984
 H         -63.516933     -179.157440      -60.132618
 H         -67.273262     -177.546341      -60.648586
 H         -66.750778     -178.414536      -62.105286
 H         -64.907127     -177.013977      -61.007919
 H         -65.330826     -177.980347      -59.527103
