20
 generated by VMD
 C         -40.104370     -100.824104      -31.737335
 N         -40.741856     -100.168419      -31.033392
 H         -37.397202     -103.491180      -32.100796
 H         -39.292179     -101.402031      -32.127567
 C         -36.846771     -102.608643      -31.706055
 C         -35.874744     -102.164742      -32.638954
 C         -36.788795     -102.168457      -30.262646
 C         -35.757664     -100.652855      -32.597515
 C         -36.182590     -100.790375      -30.089970
 C         -35.394527     -100.205994      -31.193991
 H         -36.188850     -102.478615      -33.635593
 H         -34.847427     -102.596992      -32.397049
 H         -37.826130     -102.066597      -29.762260
 H         -36.231087     -102.849419      -29.646919
 H         -36.819305     -100.293358      -32.909683
 H         -34.992123     -100.314850      -33.361420
 H         -35.591137     -100.740440      -29.209932
 H         -37.011639     -100.034454      -29.950369
 H         -35.634655      -99.131378      -31.168804
 H         -34.336731     -100.393120      -31.000624
