20
 generated by VMD
 C         -18.105831      -49.584198       -8.658698
 N         -19.183081      -49.892254       -8.747657
 H         -16.531708      -47.249790       -9.952663
 H         -17.366325      -48.676300      -10.435675
 C         -16.775982      -47.848061      -10.822755
 C         -15.511807      -48.384018      -11.604653
 C         -17.662249      -46.997665      -11.733193
 C         -15.779893      -48.833580      -13.041267
 C         -18.057890      -47.895966      -12.904840
 C         -16.839718      -47.968929      -13.809834
 H         -15.140082      -49.301411      -11.070807
 H         -14.778459      -47.588432      -11.617775
 H         -18.592466      -46.775642      -11.187925
 H         -17.180616      -46.086399      -12.156249
 H         -16.283373      -49.825859      -13.013703
 H         -14.799786      -48.834415      -13.564892
 H         -18.877625      -47.442703      -13.486588
 H         -18.420855      -48.874367      -12.626575
 H         -17.119087      -48.346859      -14.792047
 H         -16.406584      -46.983685      -14.028231
