20
 generated by VMD
 C         -27.445120      -86.646553      -26.491510
 N         -28.461475      -86.142754      -26.784290
 H         -31.178642      -85.831207      -25.393684
 H         -26.370564      -86.996971      -26.221117
 C         -31.954998      -86.585190      -25.595514
 C         -32.810368      -87.318588      -24.500366
 C         -32.082134      -87.332008      -26.969078
 C         -34.293888      -87.433243      -24.908930
 C         -33.477688      -87.477196      -27.302889
 C         -34.254459      -88.173676      -26.269173
 H         -32.692146      -86.665588      -23.641443
 H         -32.301434      -88.375015      -24.276430
 H         -31.556154      -86.731613      -27.723160
 H         -31.544950      -88.261993      -26.918041
 H         -34.723339      -86.515190      -25.213518
 H         -34.833424      -88.006691      -24.254686
 H         -33.445141      -88.157387      -28.221506
 H         -33.978123      -86.527351      -27.594957
 H         -35.289883      -88.364952      -26.647139
 H         -33.931606      -89.180023      -25.824642
