20
 generated by VMD
 C         -50.820370     -129.705444      -46.068317
 N         -50.858448     -130.400360      -45.180653
 H         -48.319489     -131.634216      -44.287525
 H         -50.879963     -129.002213      -46.908138
 C         -47.936707     -131.619522      -43.201260
 C         -48.331909     -132.787552      -42.493259
 C         -47.954472     -130.243088      -42.543053
 C         -47.479233     -132.868713      -41.184147
 C         -47.220150     -130.387512      -41.169456
 C         -47.699558     -131.544373      -40.260998
 H         -48.100319     -133.698425      -43.041069
 H         -49.416557     -132.763992      -42.337532
 H         -47.443882     -129.543732      -43.183918
 H         -48.909378     -129.888626      -42.351810
 H         -46.374767     -132.902847      -41.230450
 H         -47.670574     -133.759674      -40.580490
 H         -47.219227     -129.398697      -40.771175
 H         -46.151356     -130.455597      -41.437019
 H         -47.012066     -131.711075      -39.329811
 H         -48.771133     -131.398590      -40.054092
