20
 generated by VMD
 C         -78.627235     -209.629761      -76.850075
 N         -77.735657     -210.011749      -77.452805
 H         -79.742226     -211.514526      -74.013977
 H         -79.400612     -209.251617      -76.316048
 C         -79.473625     -212.134796      -73.187424
 C         -78.058525     -212.332626      -72.712273
 C         -80.576332     -213.095169      -73.022865
 C         -78.259987     -212.733200      -71.155792
 C         -80.821136     -213.429474      -71.537750
 C         -79.403008     -213.695312      -70.865135
 H         -77.479736     -211.358505      -72.656898
 H         -77.538811     -213.129822      -73.309769
 H         -81.479599     -212.874191      -73.564972
 H         -80.261772     -214.069946      -73.611557
 H         -78.451500     -211.798538      -70.552834
 H         -77.347824     -213.156708      -70.797813
 H         -81.531059     -214.181839      -71.476944
 H         -81.217255     -212.573654      -71.067070
 H         -79.580177     -213.811447      -69.747330
 H         -79.085411     -214.658920      -71.215439
