20
 generated by VMD
 C         -65.304695     -177.110809      -56.215965
 N         -65.917435     -177.270706      -55.254246
 H         -64.446320     -174.976669      -59.364571
 H         -64.825485     -176.864075      -57.127155
 C         -64.306221     -173.896362      -59.386063
 C         -65.289284     -172.943344      -58.781742
 C         -63.565151     -173.380783      -60.663445
 C         -64.720177     -171.553055      -58.733772
 C         -63.163567     -171.913345      -60.693279
 C         -64.175568     -170.993393      -60.042839
 H         -65.549004     -173.239609      -57.733189
 H         -66.232750     -172.796173      -59.284256
 H         -62.683533     -174.088608      -60.843662
 H         -64.392784     -173.605789      -61.500511
 H         -63.881580     -171.521378      -58.073044
 H         -65.440948     -170.884796      -58.280197
 H         -63.081142     -171.629745      -61.706448
 H         -62.154816     -171.790054      -60.197464
 H         -63.695873     -170.009811      -59.797623
 H         -65.080513     -170.832687      -60.708813
