20
 generated by VMD
 C          -8.942327      -23.666529        2.665779
 N          -8.269240      -24.526237        2.861936
 H          -8.533863      -23.536663       -1.308890
 H          -9.306604      -22.786215       -2.561676
 C          -8.288447      -23.030920       -2.217698
 C          -7.722134      -24.031248       -3.232426
 C          -7.384940      -21.801538       -2.026204
 C          -7.234724      -23.352480       -4.513125
 C          -6.892461      -21.097040       -3.423718
 C          -6.281638      -22.210180       -4.308870
 H          -8.386806      -24.864382       -3.420539
 H          -6.894054      -24.490301       -2.728189
 H          -7.917244      -21.069990       -1.376324
 H          -6.477651      -22.202877       -1.539736
 H          -8.168178      -22.902802       -4.935561
 H          -6.788633      -24.055071       -5.204956
 H          -6.166242      -20.282194       -3.163725
 H          -7.765686      -20.705935       -3.979616
 H          -5.896056      -21.768373       -5.263652
 H          -5.464393      -22.660643       -3.759965
