20
 generated by VMD
 C         -47.407230     -137.255997      -46.105038
 N         -47.160461     -136.687988      -47.128738
 H         -50.347431     -136.409744      -44.970104
 H         -47.874714     -137.847733      -45.334606
 C         -51.134811     -137.108643      -44.857433
 C         -51.452988     -137.870407      -46.003872
 C         -52.244083     -136.949661      -43.834106
 C         -52.062645     -139.255142      -45.671631
 C         -53.085129     -138.231644      -43.561058
 C         -53.315411     -139.008820      -44.814144
 H         -50.428265     -138.243271      -46.378910
 H         -51.952641     -137.335587      -46.759304
 H         -51.920315     -136.474289      -42.923027
 H         -52.937164     -136.189194      -44.204121
 H         -51.373386     -140.093872      -45.244614
 H         -52.327236     -139.730377      -46.663834
 H         -54.104183     -138.009842      -42.985081
 H         -52.601910     -138.767441      -42.711552
 H         -53.868919     -140.036926      -44.422878
 H         -54.146984     -138.470535      -45.374817
