20
 generated by VMD
 C         -31.078066      -74.806793      -22.348066
 N         -31.186075      -75.761147      -21.746971
 H         -28.781593      -76.932503      -21.248949
 H         -30.724358      -74.278259      -23.248137
 C         -27.705158      -76.744774      -21.306950
 C         -26.712397      -77.604080      -22.037720
 C         -27.252234      -75.546783      -20.606426
 C         -25.794720      -76.702499      -22.972639
 C         -26.352924      -74.665451      -21.554642
 C         -25.182684      -75.470444      -22.155581
 H         -27.324051      -78.200279      -22.884308
 H         -26.107237      -78.307144      -21.378298
 H         -28.067036      -74.957649      -20.349230
 H         -26.797272      -75.809273      -19.660786
 H         -26.321796      -76.274788      -23.896278
 H         -24.985310      -77.330971      -23.428127
 H         -25.875368      -73.847580      -20.995361
 H         -26.886456      -74.270607      -22.499500
 H         -24.666826      -74.930237      -22.985519
 H         -24.552856      -75.805305      -21.261839
