20
 generated by VMD
 C         -60.777763     -153.294250      -52.302319
 N         -61.094334     -153.636597      -51.294163
 H         -57.737160     -153.676971      -51.029507
 H         -60.509968     -153.008453      -53.297112
 C         -56.680164     -153.438614      -50.950020
 C         -55.977016     -153.717056      -49.622467
 C         -56.302212     -152.200012      -51.732647
 C         -54.446053     -153.526535      -49.798649
 C         -54.881168     -151.818512      -51.647964
 C         -54.112247     -152.189911      -50.354092
 H         -56.427006     -154.631454      -49.179150
 H         -56.259243     -153.027267      -48.819393
 H         -56.675117     -152.252823      -52.760498
 H         -56.848419     -151.396530      -51.200695
 H         -54.007645     -154.314590      -50.520309
 H         -53.936905     -153.460129      -48.823841
 H         -54.828835     -150.804092      -51.856133
 H         -54.378719     -152.246033      -52.490772
 H         -53.107140     -152.183807      -50.592033
 H         -54.442993     -151.418945      -49.583736
