20
 generated by VMD
 C         -69.797462     -180.779694      -61.296425
 N         -69.112045     -180.542130      -62.223721
 H         -66.602142     -180.050522      -59.189625
 H         -70.463470     -180.936707      -60.437672
 C         -66.163567     -179.136002      -59.655998
 C         -65.637787     -179.268158      -61.080212
 C         -65.863556     -177.981033      -58.825375
 C         -65.168159     -178.074646      -61.781635
 C         -65.530281     -176.742157      -59.645168
 C         -64.643188     -176.954590      -60.845158
 H         -66.369576     -179.782684      -61.758854
 H         -64.777809     -179.974716      -60.930141
 H         -66.689674     -177.719086      -58.114594
 H         -65.059547     -178.403687      -58.227962
 H         -65.940712     -177.525024      -62.341393
 H         -64.241112     -178.294983      -62.361149
 H         -65.236610     -175.849426      -59.052410
 H         -66.549026     -176.451965      -59.966423
 H         -64.617714     -175.928604      -61.386082
 H         -63.596176     -177.145889      -60.575188
