20
 generated by VMD
 C         -47.699249     -124.719162      -38.141594
 N         -47.310150     -125.669098      -38.704708
 H         -45.046219     -122.856834      -37.789436
 H         -47.773472     -123.836624      -37.452263
 C         -44.840714     -122.689751      -38.833660
 C         -43.777821     -123.349419      -39.523396
 C         -45.744232     -121.682457      -39.586521
 C         -44.259586     -123.940010      -40.793896
 C         -46.120731     -122.287201      -40.888748
 C         -44.904320     -122.763954      -41.648186
 H         -43.442116     -124.259644      -38.962566
 H         -42.933254     -122.732430      -39.633411
 H         -46.604809     -121.405243      -39.061771
 H         -45.139473     -120.757629      -39.708714
 H         -45.006454     -124.750069      -40.542274
 H         -43.293503     -124.314651      -41.279175
 H         -46.740967     -121.657631      -41.575558
 H         -46.608490     -123.341461      -40.809677
 H         -45.077660     -123.094177      -42.695831
 H         -44.226986     -121.925224      -41.723286
