20
 generated by VMD
 C         -40.141716     -104.751938      -35.997974
 N         -39.476021     -104.644066      -36.957642
 H         -40.492329     -107.870552      -35.108006
 H         -40.838688     -104.775314      -35.190941
 C         -39.936764     -108.037300      -34.183807
 C         -38.854446     -107.085602      -33.725742
 C         -40.090744     -109.389175      -33.482334
 C         -38.842442     -107.028473      -32.167427
 C         -39.985870     -109.355881      -32.031540
 C         -38.799957     -108.387726      -31.536167
 H         -39.037807     -106.035736      -33.955086
 H         -37.893906     -107.325676      -34.312057
 H         -41.091713     -109.726677      -33.855309
 H         -39.298996     -110.060837      -33.943375
 H         -39.760902     -106.558167      -31.791407
 H         -37.955124     -106.447304      -31.897577
 H         -39.782543     -110.276527      -31.408867
 H         -40.936852     -108.995178      -31.616678
 H         -38.654205     -108.296387      -30.529009
 H         -37.760071     -108.809052      -31.930433
