20
 generated by VMD
 C         -47.527786     -139.268005      -45.737259
 N         -46.715786     -138.772491      -46.487934
 H         -50.895073     -138.571945      -44.712479
 H         -48.110359     -139.995575      -45.167904
 C         -51.800163     -138.956268      -45.174915
 C         -51.836758     -139.268173      -46.666374
 C         -53.096134     -138.570663      -44.413174
 C         -53.027763     -140.275436      -46.929756
 C         -54.107121     -139.606216      -44.714714
 C         -54.314583     -139.755081      -46.282398
 H         -50.977058     -139.822845      -47.036385
 H         -51.972382     -138.315002      -47.162205
 H         -52.907959     -138.436279      -43.264042
 H         -53.469494     -137.578140      -44.869713
 H         -52.716309     -141.243546      -46.619648
 H         -53.130848     -140.312195      -47.993786
 H         -55.093609     -139.393555      -44.352402
 H         -53.613552     -140.487152      -44.168251
 H         -54.965511     -140.591492      -46.343487
 H         -54.643406     -138.798813      -46.810249
