20
 generated by VMD
 C         -40.323189     -118.516685      -34.988140
 N         -39.444157     -117.764587      -35.036411
 H         -43.012875     -117.102165      -36.202446
 H         -41.185345     -119.110023      -34.985466
 C         -43.485920     -116.855209      -37.096943
 C         -42.892265     -117.094856      -38.445827
 C         -44.834694     -116.140717      -37.238106
 C         -43.873657     -117.792137      -39.397316
 C         -45.785652     -117.052422      -38.063904
 C         -45.289715     -117.261856      -39.425606
 H         -41.996750     -117.678970      -38.220490
 H         -42.515003     -116.147575      -38.852448
 H         -45.380634     -115.945099      -36.229294
 H         -44.645565     -115.130035      -37.722076
 H         -43.947044     -118.833153      -39.018345
 H         -43.276428     -117.959145      -40.330437
 H         -46.771332     -116.523872      -38.284367
 H         -46.015003     -118.019463      -37.547489
 H         -45.904785     -117.903374      -40.113266
 H         -45.192738     -116.220337      -40.028004
