20
 generated by VMD
 C         -40.989239     -100.927612      -32.897373
 N         -41.901279     -101.413330      -32.412399
 H         -38.440792     -103.284248      -32.331245
 H         -39.987762     -100.710182      -33.173378
 C         -37.551445     -102.721985      -31.978394
 C         -36.286137     -102.766510      -32.871330
 C         -37.282581     -102.849586      -30.545418
 C         -35.206787     -101.837067      -32.360970
 C         -36.256901     -101.941887      -30.006441
 C         -34.977261     -101.998741      -30.889938
 H         -36.427891     -102.439087      -33.864269
 H         -35.940067     -103.811279      -32.928860
 H         -38.377277     -102.733047      -30.169079
 H         -36.989201     -103.863350      -30.278460
 H         -35.358143     -100.787430      -32.491196
 H         -34.320667     -102.019363      -32.874302
 H         -35.830002     -102.249542      -29.152735
 H         -36.699909     -100.933121      -29.832600
 H         -34.248074     -101.298180      -30.481598
 H         -34.545788     -103.018173      -30.913065
