20
 generated by VMD
 C         -58.885845     -158.966400      -57.899380
 N         -58.487396     -160.037567      -57.616802
 H         -58.626503     -161.361954      -54.851894
 H         -59.304470     -157.989532      -58.158054
 C         -59.342979     -161.552811      -54.072105
 C         -58.802567     -161.877869      -52.665554
 C         -60.770325     -161.945862      -54.308624
 C         -59.844288     -161.631958      -51.549652
 C         -61.769855     -161.923355      -53.192295
 C         -61.177845     -162.415039      -51.785286
 H         -57.901966     -161.372879      -52.388142
 H         -58.579391     -162.893768      -52.702068
 H         -61.207279     -161.283295      -55.163620
 H         -60.682373     -162.936615      -54.777657
 H         -60.157845     -160.501663      -51.741821
 H         -59.336605     -161.798660      -50.575569
 H         -62.572769     -162.528564      -53.498222
 H         -62.224152     -161.012360      -52.927982
 H         -61.972164     -162.160599      -51.026455
 H         -60.996387     -163.452621      -51.874752
