20
 generated by VMD
 C         -58.286308     -167.113342      -55.777870
 N         -57.608891     -167.670609      -55.055462
 H         -61.156090     -166.230743      -54.860447
 H         -58.846523     -166.662872      -56.543289
 C         -61.729206     -165.871750      -55.739933
 C         -62.042343     -166.839188      -56.866756
 C         -62.559818     -164.731430      -55.692085
 C         -63.457016     -167.302933      -56.794506
 C         -64.055069     -165.221161      -55.539352
 C         -64.461754     -166.207962      -56.636623
 H         -61.410671     -167.604645      -56.669441
 H         -61.619328     -166.381409      -57.824722
 H         -62.392338     -164.277451      -54.684864
 H         -62.345924     -163.991867      -56.504799
 H         -63.618408     -167.821747      -55.859413
 H         -63.811172     -167.874374      -57.670124
 H         -64.668137     -164.348068      -55.516449
 H         -64.063599     -165.639420      -54.606495
 H         -65.459221     -166.510315      -56.312328
 H         -64.713364     -165.733871      -57.588985
