20
 generated by VMD
 C         -67.462379     -179.867416      -58.352646
 N         -68.547935     -180.176514      -58.672714
 H         -67.173462     -176.612778      -59.889568
 H         -66.513634     -179.571976      -57.988277
 C         -66.192375     -175.986954      -60.066593
 C         -66.012054     -175.162964      -61.306362
 C         -64.936188     -176.629456      -59.414799
 C         -64.893127     -174.161743      -61.074516
 C         -63.826679     -175.544205      -59.250221
 C         -63.659618     -174.883423      -60.582336
 H         -66.878258     -174.553848      -61.752586
 H         -65.826599     -175.883469      -62.204197
 H         -65.153969     -177.098434      -58.436077
 H         -64.596909     -177.492371      -60.073208
 H         -65.217400     -173.374481      -60.400566
 H         -64.713150     -173.518539      -61.878155
 H         -62.831463     -176.004623      -58.969547
 H         -64.131912     -174.766769      -58.573082
 H         -62.799644     -174.179413      -60.613426
 H         -63.244698     -175.581543      -61.446976
