20
 generated by VMD
 C         -13.947240      -29.089458       -7.394965
 N         -13.374508      -29.025461       -8.351986
 H         -11.596843      -30.473270       -4.795243
 H         -10.101006      -30.033327       -3.814756
 C         -10.698032      -30.815290       -4.353889
 C          -9.889579      -31.475117       -5.497490
 C         -11.061536      -31.910109       -3.334364
 C          -8.694847      -32.184399       -4.900331
 C          -9.884048      -32.746258       -2.743034
 C          -9.155130      -33.309978       -3.998568
 H          -9.567938      -30.641258       -6.154632
 H         -10.442307      -32.169331       -6.206191
 H         -11.508122      -31.375910       -2.500348
 H         -11.796344      -32.644806       -3.735256
 H          -8.074108      -31.504017       -4.363575
 H          -8.163049      -32.577629       -5.738391
 H         -10.264141      -33.598537       -2.070091
 H          -9.335295      -32.075562       -2.114823
 H          -8.249191      -33.768215       -3.669602
 H          -9.799856      -33.942780       -4.567197
