20
 generated by VMD
 C         -67.348274     -192.146408      -67.338463
 N         -68.010170     -192.798950      -66.596085
 H         -69.943024     -189.900375      -65.372192
 H         -66.812775     -191.465149      -67.915077
 C         -70.928001     -190.088501      -65.126991
 C         -71.756493     -190.880753      -66.141037
 C         -71.548538     -189.403214      -63.920574
 C         -72.870178     -191.662582      -65.554085
 C         -73.070099     -189.840149      -63.867599
 C         -73.247818     -191.281082      -64.112007
 H         -71.148300     -191.585190      -66.817505
 H         -72.202820     -190.152512      -66.804718
 H         -70.917770     -189.869537      -63.023277
 H         -71.448395     -188.296692      -63.997810
 H         -72.680489     -192.776550      -65.645515
 H         -73.747704     -191.582245      -66.217911
 H         -73.724792     -189.247986      -64.513824
 H         -73.437401     -189.512222      -62.864788
 H         -72.656303     -191.817932      -63.422485
 H         -74.344994     -191.514252      -64.130852
