20
 generated by VMD
 C         -70.625771     -196.756134      -65.262436
 N         -69.804039     -197.474304      -65.683464
 H         -73.572716     -196.388855      -65.487167
 H         -71.211449     -196.036118      -64.695053
 C         -73.611305     -195.749069      -66.345695
 C         -72.978493     -194.338852      -66.088951
 C         -74.263840     -196.040482      -67.636444
 C         -72.480240     -193.748322      -67.458275
 C         -74.684204     -194.684036      -68.338791
 C         -73.448181     -193.787186      -68.613319
 H         -72.136963     -194.412659      -65.443871
 H         -73.961281     -193.795624      -65.761292
 H         -73.529694     -196.694778      -68.237930
 H         -75.188591     -196.619766      -67.425133
 H         -71.603333     -194.274231      -67.839180
 H         -72.253113     -192.709656      -67.325432
 H         -75.377541     -194.028061      -67.758064
 H         -75.292435     -194.933258      -69.219528
 H         -72.926735     -194.457382      -69.461624
 H         -73.675804     -192.864655      -69.058449
