20
 generated by VMD
 C         -50.654804     -130.008224      -45.088341
 N         -51.416393     -129.191940      -44.656784
 H         -48.824181     -129.366928      -42.962448
 H         -49.859184     -130.575500      -45.552586
 C         -48.255581     -129.560638      -42.026886
 C         -47.949959     -131.022552      -41.565277
 C         -47.481037     -128.375229      -41.545750
 C         -46.500698     -131.292374      -41.175804
 C         -45.994080     -128.678543      -41.241173
 C         -45.931850     -129.990433      -40.457443
 H         -48.244331     -131.805710      -42.371384
 H         -48.541470     -131.241943      -40.755379
 H         -47.541603     -127.611275      -42.300434
 H         -47.882717     -128.050400      -40.501015
 H         -45.767185     -131.423981      -41.919231
 H         -46.482796     -132.098450      -40.509007
 H         -45.485878     -127.825325      -40.637768
 H         -45.363209     -128.863235      -42.133209
 H         -44.837402     -130.125443      -40.250843
 H         -46.398514     -129.802063      -39.482571
