20
 generated by VMD
 C         -28.828569      -73.508186      -19.148758
 N         -29.570465      -74.164108      -18.541210
 H         -25.798836      -72.832542      -18.761171
 H         -27.860937      -72.885887      -19.453970
 C         -25.524668      -72.667503      -19.833475
 C         -24.961256      -73.806282      -20.680441
 C         -25.761213      -71.362602      -20.425119
 C         -25.430769      -73.742393      -22.204983
 C         -26.257090      -71.372505      -21.867008
 C         -25.564594      -72.367996      -22.732426
 H         -25.182913      -74.854805      -20.160032
 H         -23.894697      -73.797874      -20.656950
 H         -26.505077      -70.907669      -19.749752
 H         -24.917854      -70.663551      -20.393484
 H         -26.459150      -74.171936      -22.293625
 H         -24.852585      -74.385925      -22.912439
 H         -26.190969      -70.237015      -22.246157
 H         -27.395418      -71.552559      -21.853891
 H         -26.226151      -72.490982      -23.623791
 H         -24.693361      -71.932480      -23.045826
