20
 generated by VMD
 C         -49.950680     -142.818207      -45.431156
 N         -48.844559     -143.116592      -45.275661
 H         -51.913296     -139.913071      -45.530640
 H         -50.955509     -142.650009      -45.749680
 C         -52.632439     -140.193542      -46.283806
 C         -52.222321     -140.433655      -47.727325
 C         -54.036045     -140.342880      -45.934292
 C         -52.776344     -141.775330      -48.211800
 C         -54.577751     -141.726486      -46.306969
 C         -54.224213     -142.041626      -47.854717
 H         -51.145287     -140.366837      -47.914093
 H         -52.709911     -139.725357      -48.428570
 H         -54.019028     -139.960953      -44.874611
 H         -54.635895     -139.451126      -46.473000
 H         -52.171741     -142.543549      -47.751461
 H         -52.583355     -141.951355      -49.265068
 H         -55.642635     -141.774612      -46.102592
 H         -54.136330     -142.520996      -45.780560
 H         -54.449356     -143.072983      -48.098400
 H         -54.901928     -141.419693      -48.443012
