20
 generated by VMD
 C         -25.735592      -71.245605      -16.899601
 N         -26.069580      -72.119858      -16.240807
 H         -23.868309      -68.731590      -18.949667
 H         -25.215555      -70.448586      -17.578634
 C         -24.579618      -69.261131      -19.577868
 C         -24.003250      -70.368980      -20.473671
 C         -25.862103      -68.604301      -20.126633
 C         -25.014467      -71.263351      -21.289154
 C         -26.728170      -69.531883      -20.981697
 C         -26.050657      -70.251778      -22.060419
 H         -23.514744      -70.854752      -19.682890
 H         -23.369881      -69.821220      -21.155104
 H         -26.464384      -68.093254      -19.373684
 H         -25.619102      -67.860870      -20.795029
 H         -25.620955      -71.868927      -20.595842
 H         -24.577673      -71.981094      -22.067917
 H         -27.473032      -68.874718      -21.519432
 H         -27.379238      -70.030258      -20.238523
 H         -26.695631      -70.810135      -22.741308
 H         -25.494669      -69.476021      -22.632608
