20
 generated by VMD
 C          -2.803138      -17.876545        2.770622
 N          -2.330214      -17.437464        1.864086
 H          -5.319266      -18.962370        1.009878
 H          -5.361257      -19.764940       -0.605466
 C          -5.826228      -18.974030        0.013601
 C          -5.733664      -17.684837       -0.755684
 C          -7.256950      -19.392973        0.356848
 C          -6.471737      -17.902136       -2.112411
 C          -8.113716      -19.490538       -0.921127
 C          -8.016910      -18.190561       -1.803966
 H          -4.686726      -17.435349       -1.041475
 H          -6.144531      -16.865789       -0.187345
 H          -7.235787      -20.343105        0.852121
 H          -7.680357      -18.705336        1.004616
 H          -6.025513      -18.763369       -2.614639
 H          -6.310258      -17.039488       -2.769942
 H          -9.186446      -19.577955       -0.574454
 H          -7.898293      -20.333769       -1.601494
 H          -8.497457      -18.464153       -2.742982
 H          -8.553765      -17.336792       -1.327730
