20
 generated by VMD
 C         -21.986090      -55.314304      -17.489649
 N         -21.596069      -55.780094      -18.474497
 H         -21.348766      -56.771374      -13.909171
 H         -22.202370      -55.206482      -16.533846
 C         -21.150915      -57.790585      -14.059464
 C         -21.239628      -58.674362      -12.957679
 C         -20.776171      -58.159706      -15.496193
 C         -20.878420      -60.162895      -13.254240
 C         -20.257744      -59.620819      -15.613891
 C         -19.741678      -60.227852      -14.277442
 H         -22.209587      -58.643848      -12.474914
 H         -20.508467      -58.285397      -12.321692
 H         -21.715355      -58.028721      -16.153242
 H         -20.076393      -57.376587      -15.878322
 H         -21.769220      -60.622963      -13.771911
 H         -20.698151      -60.731831      -12.322426
 H         -19.443310      -59.761551      -16.355215
 H         -21.064402      -60.305683      -15.889229
 H         -19.318972      -61.268658      -14.305387
 H         -18.943113      -59.591591      -13.942109
