20
 generated by VMD
 C         -57.462883     -162.770294      -56.309505
 N         -57.138802     -162.239243      -57.304798
 H         -59.632362     -164.664276      -55.154816
 H         -57.776566     -163.248688      -55.369503
 C         -60.627213     -164.449692      -54.864643
 C         -60.920151     -164.425613      -53.299671
 C         -61.740875     -164.721924      -55.911896
 C         -62.281681     -163.818893      -53.004345
 C         -62.759766     -163.631271      -55.573380
 C         -63.380192     -163.786163      -54.125469
 H         -60.126495     -163.826508      -52.836235
 H         -60.827232     -165.403595      -52.882469
 H         -61.345554     -164.696243      -56.924072
 H         -62.273960     -165.719116      -55.821095
 H         -62.055252     -162.775223      -52.622753
 H         -62.714157     -164.394958      -52.160484
 H         -63.577507     -163.698929      -56.276062
 H         -62.203522     -162.683243      -55.606606
 H         -64.150024     -163.068970      -54.009567
 H         -64.007317     -164.643784      -54.131302
