20
 generated by VMD
 C         -32.521729      -92.913452      -25.869341
 N         -32.602882      -94.043282      -25.612846
 H         -33.758537      -94.839722      -28.757406
 H         -32.633560      -91.842567      -26.146627
 C         -34.267544      -93.943390      -29.072569
 C         -35.375343      -93.461746      -28.155802
 C         -33.677376      -93.115250      -30.169104
 C         -35.192532      -92.002136      -27.846609
 C         -33.463802      -91.695450      -29.814640
 C         -34.794708      -91.246414      -29.114098
 H         -35.172081      -94.186714      -27.388985
 H         -36.313221      -93.682961      -28.695219
 H         -32.835358      -93.583351      -30.718521
 H         -34.493336      -93.219162      -30.896105
 H         -34.528519      -91.694565      -27.063589
 H         -36.209137      -91.531998      -27.457518
 H         -33.356018      -91.015785      -30.692844
 H         -32.535789      -91.665726      -29.203514
 H         -34.598911      -90.162567      -28.971476
 H         -35.587116      -91.187653      -29.791836
