20
 generated by VMD
 C         -47.382774     -137.936996      -46.146576
 N         -47.264126     -137.254593      -47.044315
 H         -50.487812     -136.865234      -44.423897
 H         -47.439323     -138.349945      -45.190331
 C         -51.245884     -137.616470      -44.670940
 C         -51.345306     -138.239075      -45.986004
 C         -52.580643     -137.334641      -44.016872
 C         -52.253773     -139.470840      -46.058758
 C         -53.467464     -138.573318      -43.896763
 C         -53.574165     -139.293259      -45.331089
 H         -50.431026     -138.492447      -46.543182
 H         -51.792973     -137.447723      -46.665424
 H         -52.498165     -136.777435      -43.068157
 H         -53.265022     -136.602325      -44.591808
 H         -51.672379     -140.320663      -45.584503
 H         -52.277386     -139.885361      -47.057652
 H         -54.434704     -138.334045      -43.520065
 H         -53.032066     -139.180481      -43.001869
 H         -54.100403     -140.296051      -45.230495
 H         -54.249660     -138.749756      -46.156891
