20
 generated by VMD
 C         -67.937920     -178.350540      -57.954540
 N         -66.986549     -178.534302      -57.334377
 H         -65.233246     -176.661530      -59.597065
 H         -68.810310     -178.066360      -58.512268
 C         -64.829185     -175.620850      -59.473770
 C         -65.883949     -174.621948      -59.904655
 C         -63.470119     -175.402267      -60.054573
 C         -65.439644     -173.129532      -59.771606
 C         -63.038734     -173.972839      -59.878754
 C         -64.090134     -173.041412      -60.567944
 H         -66.775398     -174.725616      -59.228901
 H         -66.112877     -174.889236      -60.928036
 H         -62.813286     -176.107224      -59.562943
 H         -63.474552     -175.834702      -61.060493
 H         -65.103172     -172.822891      -58.754875
 H         -66.150871     -172.405029      -60.246632
 H         -62.165985     -173.946106      -60.486446
 H         -62.905365     -173.402908      -58.932903
 H         -63.662716     -172.012939      -60.377171
 H         -64.264732     -173.143707      -61.649582
