20
 generated by VMD
 C         -28.785593      -88.256927      -25.628839
 N         -28.640778      -87.234772      -26.211878
 H         -31.081860      -89.408089      -26.760895
 H         -28.788723      -89.247879      -25.183119
 C         -32.126514      -89.089027      -26.726364
 C         -32.986595      -89.013054      -25.433168
 C         -32.903149      -88.987984      -28.059170
 C         -33.999031      -87.923119      -25.458435
 C         -33.952248      -87.972694      -28.013313
 C         -34.771515      -87.853409      -26.709444
 H         -32.337471      -88.970123      -24.584311
 H         -33.388279      -90.029709      -25.153912
 H         -32.228184      -88.635727      -28.850817
 H         -33.299366      -89.963707      -28.420528
 H         -33.356480      -87.039452      -25.421898
 H         -34.673378      -88.049606      -24.639730
 H         -34.678471      -88.092781      -28.910316
 H         -33.462406      -86.968094      -28.115379
 H         -35.425591      -86.982933      -26.710407
 H         -35.483284      -88.644508      -26.583195
