20
 generated by VMD
 C         -59.792473     -171.890030      -55.211346
 N         -59.619537     -172.933762      -54.830395
 H         -63.158978     -170.173981      -56.158752
 H         -59.901833     -170.932159      -55.676849
 C         -63.563347     -169.385422      -56.745914
 C         -62.639629     -168.262497      -57.430256
 C         -65.058281     -169.403839      -57.076107
 C         -63.117950     -167.908783      -58.833855
 C         -65.431129     -168.937256      -58.460075
 C         -64.696404     -167.648926      -58.904591
 H         -61.601860     -168.796677      -57.372181
 H         -62.611946     -167.458038      -56.839756
 H         -65.249390     -170.468918      -56.929951
 H         -65.468727     -168.800735      -56.325386
 H         -62.798935     -168.678314      -59.506443
 H         -62.625591     -166.961884      -59.193352
 H         -66.569809     -168.873703      -58.435715
 H         -65.163307     -169.838760      -59.111744
 H         -64.825058     -167.272491      -59.917854
 H         -64.868057     -166.863632      -58.134525
