20
 generated by VMD
 C         -29.165358      -81.230919      -27.523750
 N         -29.923727      -80.339096      -27.602764
 H         -28.376431      -82.455795      -24.035580
 H         -28.539972      -82.007996      -27.179800
 C         -29.242031      -83.152000      -23.818779
 C         -29.675917      -83.463768      -22.368694
 C         -29.957500      -83.827156      -24.998245
 C         -31.264362      -83.811050      -22.203487
 C         -31.462505      -83.950493      -24.779951
 C         -31.790758      -84.511238      -23.362148
 H         -29.329786      -82.616776      -21.710402
 H         -29.158283      -84.315506      -22.138212
 H         -29.742163      -83.434547      -26.022255
 H         -29.603661      -84.824127      -25.002752
 H         -31.769257      -82.911888      -22.002218
 H         -31.188202      -84.518425      -21.357040
 H         -31.972893      -84.574699      -25.439039
 H         -32.025879      -83.081696      -24.829321
 H         -32.899952      -84.398369      -23.196695
 H         -31.704760      -85.553207      -23.312452
