20
 generated by VMD
 C         -40.752239     -119.308006      -35.096272
 N         -39.724659     -118.733849      -35.222450
 H         -43.674717     -117.015289      -36.052998
 H         -41.770790     -119.750244      -34.830700
 C         -44.013020     -117.068863      -37.118526
 C         -43.090450     -117.572701      -38.186668
 C         -45.279663     -116.614044      -37.578636
 C         -43.747265     -118.370087      -39.342014
 C         -45.907658     -117.283752      -38.792973
 C         -44.979862     -117.692116      -39.917549
 H         -42.394947     -118.360115      -37.823296
 H         -42.649864     -116.659531      -38.630455
 H         -45.995735     -116.651329      -36.723637
 H         -45.124729     -115.504097      -37.782566
 H         -43.933105     -119.389481      -38.814602
 H         -43.089081     -118.536674      -40.218662
 H         -46.713608     -116.720909      -39.335945
 H         -46.575142     -118.284973      -38.573044
 H         -45.497196     -118.340843      -40.711689
 H         -44.752384     -116.786972      -40.564430
