20
 generated by VMD
 C          -1.396789      -10.561536        1.357698
 N          -0.891259      -11.575110        1.360482
 H          -3.884667      -13.263028       -0.072277
 H          -5.273590      -12.690760        0.825778
 C          -4.585324      -13.557433        0.745803
 C          -3.856226      -13.893292        2.087309
 C          -5.364929      -14.777295        0.263388
 C          -4.803567      -14.493457        3.119985
 C          -6.286690      -15.317760        1.298746
 C          -5.548229      -15.706983        2.575927
 H          -3.449353      -12.963440        2.535254
 H          -3.135612      -14.658915        1.904442
 H          -5.869271      -14.486407       -0.716142
 H          -4.558821      -15.545739       -0.054125
 H          -5.592591      -13.818550        3.297458
 H          -4.340118      -14.748727        4.067085
 H          -6.764498      -16.243885        0.967781
 H          -7.063728      -14.632428        1.581091
 H          -6.243107      -16.103453        3.360650
 H          -4.774210      -16.511860        2.360764
