20
 generated by VMD
 C         -68.981705     -193.391129      -66.602959
 N         -67.823608     -193.545715      -66.407623
 H         -70.096657     -190.185165      -65.433517
 H         -70.015106     -193.161972      -66.771164
 C         -71.026939     -190.687317      -65.451965
 C         -71.880539     -190.648804      -66.617775
 C         -71.500771     -191.082870      -64.078323
 C         -73.040459     -191.672073      -66.495430
 C         -72.974510     -190.972977      -64.010368
 C         -73.663780     -191.774918      -65.099716
 H         -71.286934     -190.900040      -67.451729
 H         -72.329727     -189.653076      -66.758209
 H         -71.267075     -192.074875      -63.918495
 H         -71.019249     -190.442719      -63.310471
 H         -72.738312     -192.668442      -66.835594
 H         -73.779083     -191.340225      -67.252037
 H         -73.341812     -189.984451      -64.314545
 H         -73.388817     -191.263168      -63.091961
 H         -73.620934     -192.938614      -65.005768
 H         -74.650734     -191.459167      -65.094276
