20
 generated by VMD
 C         -58.472176     -151.277573      -49.474243
 N         -58.756531     -152.124527      -48.696892
 H         -55.389248     -149.879822      -47.619862
 H         -58.022949     -150.498413      -50.135479
 C         -55.166977     -149.517715      -48.608734
 C         -54.357563     -150.443802      -49.454006
 C         -54.933750     -148.011673      -48.887962
 C         -54.107830     -150.155518      -50.964218
 C         -54.851868     -147.742538      -50.463703
 C         -53.821507     -148.632675      -51.147911
 H         -54.672935     -151.511627      -49.402756
 H         -53.361450     -150.409119      -49.061615
 H         -55.792084     -147.616211      -48.475925
 H         -54.048927     -147.676407      -48.408569
 H         -54.995148     -150.346619      -51.599857
 H         -53.379826     -150.835098      -51.378937
 H         -54.661209     -146.594376      -50.753365
 H         -55.776524     -147.898193      -50.904991
 H         -53.860699     -148.466324      -52.172470
 H         -52.769524     -148.371506      -50.850719
