20
 generated by VMD
 C          -1.938646      -13.190673        0.531825
 N          -1.592732      -13.324353        1.589461
 H          -3.489680      -16.505095        1.713478
 H          -4.005903      -16.189497        0.067202
 C          -4.344858      -16.460751        1.065136
 C          -5.297012      -15.295829        1.518630
 C          -5.133914      -17.777235        0.951643
 C          -6.539672      -15.222153        0.631468
 C          -6.397679      -17.626066        0.081181
 C          -7.305100      -16.575094        0.596005
 H          -4.698061      -14.337970        1.397177
 H          -5.470839      -15.296188        2.590624
 H          -4.515059      -18.581114        0.413204
 H          -5.466654      -18.151814        1.956106
 H          -6.334551      -15.031667       -0.420775
 H          -7.261381      -14.446958        0.953838
 H          -6.966918      -18.564003        0.116853
 H          -6.107694      -17.393370       -0.993854
 H          -8.215217      -16.489687       -0.004040
 H          -7.628290      -16.841354        1.613237
