20
 generated by VMD
 C         -14.041755      -28.966221       -7.438403
 N         -13.347312      -29.003387       -8.307467
 H         -11.611609      -30.445581       -4.765162
 H         -10.042184      -30.095493       -3.869764
 C         -10.713469      -30.859867       -4.339857
 C          -9.919821      -31.462830       -5.482628
 C         -11.064478      -31.859917       -3.229199
 C          -8.630187      -32.137451       -4.883023
 C          -9.805882      -32.637379       -2.833272
 C          -9.084747      -33.299728       -3.951205
 H          -9.641417      -30.744247       -6.308717
 H         -10.537030      -32.148636       -5.972947
 H         -11.521876      -31.367535       -2.390482
 H         -11.777624      -32.541283       -3.687216
 H          -8.098972      -31.382425       -4.308718
 H          -8.008092      -32.444042       -5.739440
 H         -10.027330      -33.430721       -2.138422
 H          -9.075768      -31.953323       -2.289122
 H          -8.211532      -33.834656       -3.564869
 H          -9.883801      -33.956322       -4.416694
