20
 generated by VMD
 C         -38.753479     -111.427109      -36.487534
 N         -38.357109     -110.306366      -36.507500
 H         -40.142078     -114.065918      -35.085323
 H         -39.229385     -112.354401      -36.278515
 C         -41.056995     -113.526863      -35.359821
 C         -41.705830     -113.809479      -36.735207
 C         -41.777618     -112.550568      -34.407597
 C         -43.229130     -114.168785      -36.468140
 C         -43.296658     -112.888405      -34.358047
 C         -43.862061     -112.991386      -35.815941
 H         -41.254036     -114.666328      -37.302299
 H         -41.501537     -112.914871      -37.286709
 H         -41.217072     -112.687447      -33.484814
 H         -41.523144     -111.473228      -34.599957
 H         -43.330471     -115.113213      -35.930336
 H         -43.737667     -114.237144      -37.441902
 H         -43.951881     -112.338829      -33.667530
 H         -43.515415     -113.818054      -33.841885
 H         -44.918018     -113.055832      -35.605400
 H         -43.694870     -111.957016      -36.260216
