20
 generated by VMD
 C          -2.946791      -17.737082        2.753648
 N          -2.661432      -17.706533        1.675802
 H          -5.337289      -19.200771        0.981748
 H          -5.533887      -20.124439       -0.548698
 C          -5.861947      -19.211531       -0.015411
 C          -5.526346      -17.956747       -0.749660
 C          -7.340450      -19.480715        0.300323
 C          -6.435300      -17.847626       -2.012282
 C          -8.157679      -19.533770       -0.979772
 C          -7.924358      -18.196770       -1.831640
 H          -4.479408      -17.904408       -1.064477
 H          -5.750997      -17.069534       -0.194887
 H          -7.525414      -20.375490        0.919611
 H          -7.655663      -18.591135        0.885182
 H          -6.002508      -18.611221       -2.676765
 H          -6.309341      -16.839474       -2.530001
 H          -9.244042      -19.684559       -0.758583
 H          -7.817709      -20.350470       -1.621771
 H          -8.360426      -18.346798       -2.823196
 H          -8.397716      -17.324425       -1.328314
