20
 generated by VMD
 C         -24.411766      -69.991631      -16.503874
 N         -24.541071      -70.454971      -15.465841
 H         -23.567968      -67.403450      -19.282883
 H         -24.524355      -69.584358      -17.499210
 C         -24.357241      -67.996056      -19.669006
 C         -23.785233      -68.717415      -20.851128
 C         -25.900158      -67.687294      -19.424269
 C         -24.619539      -69.893311      -21.182877
 C         -26.679737      -68.964653      -19.889950
 C         -26.147577      -69.525780      -21.168064
 H         -22.809683      -68.975807      -20.607542
 H         -23.611086      -68.172386      -21.793839
 H         -26.060717      -67.563148      -18.290920
 H         -26.147524      -66.746292      -20.018625
 H         -24.648432      -70.673218      -20.455446
 H         -24.423244      -70.286270      -22.171501
 H         -27.708050      -68.741249      -19.847919
 H         -26.650873      -69.644409      -19.110708
 H         -26.728579      -70.421341      -21.351633
 H         -26.234875      -68.855255      -22.007467
