20
 generated by VMD
 C         -49.330082     -133.082565      -46.947121
 N         -48.415184     -132.988846      -47.561176
 H         -48.658401     -134.280289      -44.648643
 H         -50.175526     -132.898331      -46.363121
 C         -49.309742     -134.852081      -43.936138
 C         -49.616028     -136.227005      -44.334595
 C         -50.315907     -134.113449      -43.104504
 C         -50.210014     -137.040695      -43.152241
 C         -50.910202     -134.962830      -42.025204
 C         -51.323559     -136.379547      -42.422718
 H         -48.742981     -136.775955      -44.589428
 H         -50.330360     -136.288300      -45.229729
 H         -49.920662     -133.253845      -42.706112
 H         -51.132904     -133.862930      -43.789165
 H         -49.442856     -137.353958      -42.433475
 H         -50.544872     -137.909744      -43.704292
 H         -51.760559     -134.367523      -41.477348
 H         -50.047997     -134.934067      -41.305283
 H         -51.569107     -136.979767      -41.616982
 H         -52.189941     -136.325821      -43.194416
