20
 generated by VMD
 C         -79.726021     -206.876801      -75.442932
 N         -79.969887     -207.443176      -74.465096
 H         -76.861053     -208.066055      -73.298912
 H         -79.365143     -206.551285      -76.436211
 C         -76.857307     -208.294296      -72.270050
 C         -75.659599     -207.891220      -71.419930
 C         -77.840958     -209.204697      -71.655716
 C         -75.991165     -207.744858      -69.906265
 C         -78.186569     -209.026138      -70.225555
 C         -76.918808     -208.800903      -69.361641
 H         -75.092033     -207.045792      -71.899956
 H         -74.918243     -208.724792      -71.423859
 H         -78.783997     -209.300522      -72.210152
 H         -77.438690     -210.196640      -71.534332
 H         -76.308334     -206.716690      -69.619904
 H         -75.037430     -207.775421      -69.355873
 H         -78.613190     -209.938431      -69.724731
 H         -78.944366     -208.279999      -70.158279
 H         -77.248505     -208.599991      -68.348396
 H         -76.211121     -209.699646      -69.275131
