20
 generated by VMD
 C          -1.984367       -9.689939       -0.118152
 N          -2.389049       -8.809359        0.408646
 H          -2.322189      -10.977610        2.467990
 H          -2.393306      -11.840399        4.167049
 C          -2.756483      -11.816710        3.086922
 C          -2.596830      -13.054103        2.175493
 C          -4.246206      -11.411219        3.171502
 C          -3.423632      -14.245296        2.709470
 C          -5.116669      -12.534292        3.667014
 C          -4.854852      -13.840557        2.954408
 H          -1.541671      -13.281291        2.140056
 H          -2.972886      -12.730529        1.203501
 H          -4.335671      -10.518492        3.747674
 H          -4.491490      -11.052784        2.207888
 H          -2.945908      -14.484991        3.639323
 H          -3.366271      -15.050993        1.967004
 H          -6.161903      -12.276504        3.460680
 H          -5.025411      -12.750763        4.739440
 H          -5.354989      -14.697651        3.431286
 H          -5.279244      -13.735348        1.912955
