20
 generated by VMD
 C         -75.756340     -202.387253      -66.322708
 N         -76.598923     -202.829529      -65.632973
 H         -75.724792     -200.200363      -68.824173
 H         -74.878319     -201.927094      -66.881989
 C         -74.831497     -199.562958      -69.021408
 C         -74.902260     -198.160294      -68.402870
 C         -73.842094     -200.014053      -70.084534
 C         -73.474869     -197.716217      -68.443810
 C         -73.266174     -198.766571      -70.833824
 C         -72.652435     -197.827393      -69.705589
 H         -75.255424     -198.016266      -67.384689
 H         -75.632942     -197.481583      -69.089607
 H         -72.989899     -200.587936      -69.625237
 H         -74.426163     -200.661255      -70.888695
 H         -72.876709     -198.282974      -67.720695
 H         -73.387825     -196.678894      -68.207596
 H         -74.032326     -198.169067      -71.427864
 H         -72.596596     -199.215363      -71.614159
 H         -71.724976     -198.149826      -69.454178
 H         -72.478790     -196.755005      -70.126022
