20
 generated by VMD
 C         -51.014233     -129.692322      -45.321072
 N         -51.611790     -130.263367      -46.090111
 H         -48.544872     -130.476715      -43.616219
 H         -50.804482     -129.207626      -44.398895
 C         -48.121525     -130.551971      -42.645035
 C         -48.218006     -131.970978      -41.993904
 C         -47.647694     -129.314560      -41.807076
 C         -46.861061     -132.207535      -41.194256
 C         -46.449497     -129.674713      -41.019550
 C         -46.614082     -131.002853      -40.290916
 H         -48.344902     -132.717346      -42.747368
 H         -49.156937     -131.931061      -41.285759
 H         -47.417858     -128.391388      -42.510372
 H         -48.381493     -128.940155      -41.101929
 H         -46.074390     -132.298645      -41.927330
 H         -46.993595     -133.151352      -40.648457
 H         -46.248974     -128.961334      -40.244495
 H         -45.459110     -129.789551      -41.524578
 H         -45.771164     -131.321045      -39.720356
 H         -47.482883     -130.964493      -39.629921
