20
 generated by VMD
 C         -49.516376     -132.047516      -46.329891
 N         -50.272152     -132.225784      -47.268036
 H         -47.860668     -133.830780      -44.653458
 H         -48.645702     -132.149658      -45.648674
 C         -48.504135     -134.203568      -43.845993
 C         -49.019276     -135.622070      -43.845600
 C         -49.113644     -133.209656      -42.976906
 C         -49.764935     -136.026581      -42.613499
 C         -49.824306     -133.706818      -41.700069
 C         -50.690151     -134.958496      -42.026573
 H         -48.216122     -136.351654      -44.129219
 H         -49.810783     -135.748459      -44.630016
 H         -48.230934     -132.549301      -42.732384
 H         -49.839554     -132.621307      -43.590309
 H         -49.122757     -136.556976      -41.901070
 H         -50.338600     -136.922424      -43.005760
 H         -50.462421     -132.978165      -41.216957
 H         -49.060253     -134.019669      -41.047142
 H         -51.074757     -135.422363      -41.174374
 H         -51.333557     -134.684158      -42.905025
