20
 generated by VMD
 C         -67.565277     -179.879074      -58.438599
 N         -68.288673     -179.898315      -59.325634
 H         -67.281860     -176.825363      -60.144245
 H         -66.894753     -179.769730      -57.567486
 C         -66.396942     -176.338470      -60.099354
 C         -65.995415     -175.572647      -61.378395
 C         -65.310211     -176.883087      -59.304153
 C         -64.852219     -174.587875      -61.189312
 C         -64.116829     -175.857681      -59.233948
 C         -63.741882     -175.319672      -60.572483
 H         -66.946693     -175.189743      -61.761070
 H         -65.631920     -176.308746      -62.117790
 H         -65.482315     -177.191422      -58.255409
 H         -64.839478     -177.678772      -59.810879
 H         -65.236847     -173.878983      -60.487209
 H         -64.566254     -173.970383      -62.062237
 H         -63.218521     -176.207901      -58.780739
 H         -64.472130     -175.017548      -58.580231
 H         -62.849236     -174.627960      -60.382858
 H         -63.421978     -176.128372      -61.213020
