20
 generated by VMD
 C         -10.737017      -37.076397       -8.553078
 N         -10.825945      -36.392841       -7.656241
 H         -13.362993      -37.342556       -7.565913
 H         -14.374177      -38.125076       -6.316861
 C         -13.939665      -38.247543       -7.352121
 C         -13.114100      -39.490162       -7.389447
 C         -15.078221      -38.290409       -8.306497
 C         -13.892828      -40.758709       -7.235761
 C         -15.866906      -39.545078       -8.247483
 C         -15.045157      -40.828968       -8.238687
 H         -12.393174      -39.362316       -6.616258
 H         -12.586709      -39.514622       -8.299470
 H         -15.808986      -37.472080       -8.100119
 H         -14.706766      -38.136604       -9.302731
 H         -14.305326      -40.738621       -6.221242
 H         -13.265929      -41.639984       -7.414780
 H         -16.550724      -39.597923       -9.148714
 H         -16.543797      -39.589748       -7.407736
 H         -15.677944      -41.732254       -8.168376
 H         -14.554688      -40.889874       -9.187262
