20
 generated by VMD
 C         -66.368347     -189.636673      -66.637856
 N         -66.279320     -189.269501      -67.747627
 H         -69.868713     -190.483902      -65.040779
 H         -66.554306     -190.154800      -65.715027
 C         -70.755203     -189.977112      -64.624840
 C         -71.940926     -190.757965      -64.128540
 C         -70.524986     -188.632141      -63.846027
 C         -73.166702     -189.848526      -63.829750
 C         -71.757820     -187.785858      -63.768089
 C         -72.862106     -188.586639      -63.184067
 H         -71.491417     -191.161087      -63.157417
 H         -72.246475     -191.670792      -64.810440
 H         -70.288338     -188.915909      -62.821609
 H         -69.469154     -188.129807      -64.082169
 H         -73.733879     -190.388474      -63.062859
 H         -73.818382     -189.710434      -64.687355
 H         -72.040375     -187.313522      -64.697540
 H         -71.469696     -186.896332      -63.222317
 H         -72.663864     -188.775925      -62.104977
 H         -73.847176     -187.922333      -63.316486
