20
 generated by VMD
 C         -30.213432      -92.805519      -25.166895
 N         -30.499411      -93.719078      -25.822298
 H         -33.339931      -91.280060      -26.414474
 H         -29.867893      -92.000916      -24.415049
 C         -33.807076      -91.305298      -27.387056
 C         -35.101776      -92.212044      -27.515345
 C         -33.167561      -90.655586      -28.597614
 C         -36.076679      -91.627678      -28.573351
 C         -34.238800      -90.031174      -29.473139
 C         -35.331463      -91.085770      -29.748652
 H         -35.498199      -92.280807      -26.512222
 H         -34.872986      -93.247650      -27.789965
 H         -32.469608      -89.867973      -28.334490
 H         -32.482372      -91.349548      -29.101395
 H         -36.746750      -90.943848      -28.089252
 H         -36.731449      -92.516121      -28.820332
 H         -33.982185      -89.680939      -30.492878
 H         -34.830647      -89.208633      -29.117340
 H         -35.968060      -90.792763      -30.578945
 H         -34.842278      -91.976418      -30.128450
