20
 generated by VMD
 C         -51.118668     -130.778397      -46.217873
 N         -50.401417     -130.243225      -46.881916
 H         -48.167694     -132.276169      -44.415398
 H         -51.874931     -131.359238      -45.660770
 C         -48.054863     -132.416885      -43.370449
 C         -48.569466     -133.757095      -42.980522
 C         -48.099052     -131.188538      -42.387222
 C         -48.257057     -134.037415      -41.572018
 C         -47.881123     -131.600266      -40.980122
 C         -48.603794     -132.892258      -40.619415
 H         -48.265987     -134.678726      -43.590588
 H         -49.619766     -133.746124      -43.136379
 H         -47.401875     -130.456558      -42.638390
 H         -49.098976     -130.659744      -42.625278
 H         -47.192501     -134.172089      -41.436684
 H         -48.730537     -134.885849      -41.103378
 H         -48.214931     -130.675903      -40.312225
 H         -46.851349     -131.866562      -40.810574
 H         -48.506935     -133.249161      -39.602486
 H         -49.748962     -132.589157      -40.611797
