20
 generated by VMD
 C         -68.244370     -188.507904      -66.872894
 N         -68.651138     -187.878677      -67.774345
 H         -68.228233     -186.981537      -63.467575
 H         -67.861847     -188.956161      -65.924690
 C         -69.231598     -187.452972      -63.473770
 C         -69.317924     -188.760071      -62.682720
 C         -70.449409     -186.579559      -63.680019
 C         -70.627045     -189.498306      -63.014515
 C         -71.731964     -187.420334      -63.711609
 C         -71.822060     -188.574493      -62.840500
 H         -69.113136     -188.381989      -61.712669
 H         -68.559273     -189.461868      -62.894360
 H         -70.511635     -185.977341      -62.742970
 H         -70.416435     -185.986618      -64.666252
 H         -70.767204     -190.325439      -62.271130
 H         -70.571533     -189.999878      -63.947086
 H         -71.741272     -187.758987      -64.736938
 H         -72.614983     -186.821381      -63.429932
 H         -71.916443     -188.187042      -61.747910
 H         -72.764168     -189.188812      -63.067432
