20
 generated by VMD
 C         -20.063608      -50.102859       -9.742280
 N         -19.813347      -51.244476       -9.598515
 H         -16.906111      -48.458851       -9.953751
 H         -20.055737      -49.005249       -9.561109
 C         -16.886147      -48.595547      -11.066228
 C         -15.874853      -49.645153      -11.546779
 C         -17.387465      -47.607891      -12.054168
 C         -16.011391      -49.973755      -13.044211
 C         -17.904757      -48.323410      -13.244675
 C         -16.762691      -49.034660      -13.972328
 H         -16.031321      -50.527039      -10.948267
 H         -14.853158      -49.304066      -11.284949
 H         -18.117426      -46.968697      -11.574113
 H         -16.592653      -46.928989      -12.286445
 H         -16.430578      -50.986507      -13.226706
 H         -14.972918      -49.996956      -13.446575
 H         -18.419888      -47.596107      -13.885180
 H         -18.596493      -49.126511      -12.947471
 H         -17.175440      -49.739838      -14.749632
 H         -16.096102      -48.244881      -14.461074
