20
 generated by VMD
 C         -50.054218     -144.577759      -44.381012
 N         -49.321556     -143.889679      -44.907513
 H         -52.522892     -142.385345      -45.647598
 H         -50.807796     -145.189987      -43.955231
 C         -53.048885     -142.209274      -46.579247
 C         -52.379219     -142.117233      -47.934696
 C         -54.380352     -141.612350      -46.504242
 C         -53.300194     -142.534760      -49.064281
 C         -55.290089     -141.976730      -47.682106
 C         -54.615959     -141.851151      -49.032379
 H         -51.393593     -142.683304      -47.972645
 H         -52.043556     -141.046661      -48.126625
 H         -54.801323     -141.793686      -45.504593
 H         -54.111568     -140.445419      -46.404381
 H         -53.421238     -143.722198      -48.935581
 H         -52.862446     -142.425613      -50.119041
 H         -56.167843     -141.300232      -47.524845
 H         -55.686043     -143.024185      -47.751831
 H         -55.209728     -142.344086      -49.909084
 H         -54.515118     -140.667938      -49.265282
