20
 generated by VMD
 C         -70.245628     -196.654358      -65.334587
 N         -69.417526     -197.069992      -66.052063
 H         -73.814346     -195.796021      -65.069801
 H         -71.093712     -196.389481      -64.741096
 C         -73.937538     -195.157867      -65.946564
 C         -73.026199     -193.906677      -65.959740
 C         -74.444901     -195.687363      -67.207962
 C         -72.404297     -193.687027      -67.331070
 C         -74.322601     -194.921768      -68.482178
 C         -73.460922     -193.714996      -68.474037
 H         -72.178017     -193.923462      -65.237579
 H         -73.581924     -193.052353      -65.705933
 H         -74.088699     -196.693909      -67.370773
 H         -75.533752     -195.838074      -67.053932
 H         -71.686928     -194.437988      -67.499901
 H         -71.856163     -192.750641      -67.242943
 H         -75.293365     -194.593430      -68.854538
 H         -73.957268     -195.704285      -69.148926
 H         -72.887581     -193.506409      -69.382202
 H         -74.118500     -192.742126      -68.311226
