20
 generated by VMD
 C         -59.231995     -158.674103      -57.372112
 N         -58.638168     -158.204453      -58.228661
 H         -59.851807     -158.876984      -53.837112
 H         -59.826797     -159.169189      -56.604427
 C         -59.644733     -159.892029      -53.438770
 C         -58.461842     -160.112244      -52.612202
 C         -60.625530     -161.052567      -53.565804
 C         -58.858326     -160.614883      -51.269619
 C         -60.930984     -161.784866      -52.281414
 C         -59.752460     -161.834229      -51.343845
 H         -57.816895     -159.182922      -52.498192
 H         -57.689423     -160.881683      -53.071827
 H         -61.508350     -160.468781      -53.926579
 H         -60.323063     -161.729980      -54.285545
 H         -59.431328     -159.798065      -50.877949
 H         -57.852993     -160.774078      -50.779110
 H         -61.221684     -162.770981      -52.548237
 H         -61.770061     -161.463272      -51.713669
 H         -60.083744     -161.928101      -50.279476
 H         -59.059551     -162.727188      -51.741840
