20
 generated by VMD
 C         -20.722992      -52.258636       -9.653700
 N         -21.258167      -52.077332      -10.625032
 H         -19.121080      -49.898140      -11.372909
 H         -20.535452      -52.668346       -8.533047
 C         -18.110424      -49.953609      -11.837855
 C         -17.481411      -51.189495      -12.253001
 C         -17.403215      -48.664825      -12.315697
 C         -16.957495      -51.103336      -13.682707
 C         -16.552393      -48.701435      -13.643406
 C         -15.858727      -50.043373      -13.890497
 H         -18.159369      -52.072548      -12.103321
 H         -16.665049      -51.416084      -11.563486
 H         -18.180399      -47.903107      -12.409640
 H         -16.676373      -48.420635      -11.470689
 H         -17.742699      -50.915192      -14.435435
 H         -16.518574      -52.081470      -13.944432
 H         -15.705430      -48.072899      -13.532004
 H         -17.135527      -48.243572      -14.535306
 H         -15.426768      -50.055775      -14.876127
 H         -15.091419      -50.203728      -13.136988
