20
 generated by VMD
 C         -73.875122     -200.467056      -65.588493
 N         -73.087532     -201.135529      -65.043549
 H         -72.882599     -197.718704      -66.592033
 H         -74.632393     -200.099289      -66.264809
 C         -73.326530     -197.256271      -67.486862
 C         -73.983452     -195.946457      -67.279404
 C         -72.819534     -197.770035      -68.738914
 C         -73.780861     -195.095840      -68.521980
 C         -73.787094     -197.367279      -69.841400
 C         -74.274422     -195.866302      -69.735153
 H         -73.557251     -195.374374      -66.510956
 H         -75.048653     -196.246979      -66.973404
 H         -71.889618     -197.171494      -68.905602
 H         -72.656784     -198.904297      -68.718163
 H         -72.729576     -194.921082      -68.672760
 H         -74.250977     -194.112000      -68.526932
 H         -74.648865     -198.061066      -69.874931
 H         -73.280533     -197.648376      -70.825722
 H         -73.947998     -195.348877      -70.652916
 H         -75.317871     -195.924759      -69.733376
