20
 generated by VMD
 C         -50.689232     -129.557907      -45.698013
 N         -51.198101     -130.595154      -45.436817
 H         -48.491478     -130.749939      -43.954311
 H         -50.137852     -128.617203      -45.835640
 C         -48.145531     -131.013153      -42.880283
 C         -48.362778     -132.303436      -42.233372
 C         -47.902012     -129.753586      -42.170597
 C         -47.221916     -132.507523      -41.276428
 C         -46.851143     -130.022232      -41.135899
 C         -47.037445     -131.267426      -40.318752
 H         -48.322842     -133.133850      -43.033024
 H         -49.369354     -132.298706      -41.917637
 H         -47.446037     -129.045181      -42.855610
 H         -48.923565     -129.395630      -41.742016
 H         -46.287170     -132.756912      -41.807961
 H         -47.391857     -133.478439      -40.805573
 H         -46.750759     -129.197617      -40.379917
 H         -45.927731     -130.137680      -41.640625
 H         -46.268383     -131.532028      -39.665234
 H         -47.948132     -131.344177      -39.743652
