20
 generated by VMD
 C         -41.063587     -104.440033      -36.100338
 N         -42.038036     -104.995682      -36.437477
 H         -38.356194     -104.075508      -33.295879
 H         -40.060806     -104.150253      -35.930420
 C         -38.172531     -105.094536      -32.931904
 C         -36.963001     -105.583374      -32.255512
 C         -39.190540     -106.237129      -33.317928
 C         -37.353603     -106.691681      -31.142899
 C         -39.403866     -107.358673      -32.272621
 C         -38.121944     -107.873283      -31.654549
 H         -36.529865     -104.849548      -31.556070
 H         -36.249432     -105.985641      -32.969494
 H         -40.238316     -105.788986      -33.547470
 H         -38.838486     -106.670784      -34.240906
 H         -37.727592     -106.016106      -30.368876
 H         -36.375156     -107.132362      -30.894497
 H         -40.086151     -108.109581      -32.741112
 H         -40.118446     -107.071495      -31.559669
 H         -38.265804     -108.516899      -30.845886
 H         -37.583088     -108.505547      -32.435978
