20
 generated by VMD
 C         -38.885391     -107.979790      -37.496548
 N         -38.990532     -106.904175      -37.966213
 H         -40.155087     -108.405479      -35.132008
 H         -38.657734     -108.928139      -37.012947
 C         -40.380600     -109.131958      -34.362812
 C         -39.409130     -110.459618      -34.251740
 C         -41.902706     -109.333153      -34.124378
 C         -39.831524     -111.140923      -32.979038
 C         -42.047218     -110.087395      -32.808174
 C         -41.262520     -111.405106      -32.837223
 H         -38.426540     -110.009041      -34.275726
 H         -39.694366     -110.988396      -35.129230
 H         -42.491402     -108.425682      -34.248272
 H         -42.332802     -110.039673      -34.928715
 H         -39.429256     -110.673531      -32.115112
 H         -39.496647     -112.133347      -32.865452
 H         -43.153202     -110.277054      -32.533333
 H         -41.714516     -109.646782      -31.882734
 H         -41.321899     -111.869637      -31.792770
 H         -41.603008     -112.183884      -33.625961
