20
 generated by VMD
 C         -42.048389     -101.688797      -33.471817
 N         -40.983185     -101.750259      -33.868202
 H         -39.054642     -103.588684      -32.543808
 H         -42.986137     -101.357086      -33.203514
 C         -38.022720     -103.735764      -32.260738
 C         -36.791435     -103.531609      -33.085201
 C         -37.841824     -104.183601      -30.797285
 C         -35.716198     -102.781265      -32.372303
 C         -36.594830     -103.451340      -30.172434
 C         -35.382874     -103.412575      -31.022734
 H         -37.034309     -103.007866      -34.010559
 H         -36.490707     -104.579514      -33.335892
 H         -38.727314     -103.890091      -30.315477
 H         -37.674175     -105.331886      -30.826401
 H         -36.021214     -101.715340      -32.112995
 H         -34.788849     -102.678253      -33.071293
 H         -36.438526     -103.993706      -29.177153
 H         -36.740860     -102.445084      -29.954481
 H         -34.557335     -102.757706      -30.506203
 H         -34.977345     -104.439339      -31.130968
