20
 generated by VMD
 C         -13.473127      -30.496286       -8.362813
 N         -13.620787      -30.132925       -9.397808
 H         -11.037213      -31.283270       -5.300295
 H         -11.073169      -31.874735       -3.639208
 C         -10.888502      -32.199078       -4.682115
 C          -9.493650      -32.776974       -4.799423
 C         -11.988421      -33.163074       -5.104614
 C          -9.290880      -34.115036       -4.036336
 C         -11.815550      -34.469574       -4.404919
 C         -10.459707      -35.085270       -4.360571
 H          -8.783874      -32.077431       -4.447150
 H          -9.286240      -32.970402       -5.897363
 H         -12.984798      -32.857010       -4.841368
 H         -12.018563      -33.368851       -6.156440
 H          -9.472492      -33.870098       -2.993507
 H          -8.313942      -34.512615       -4.224360
 H         -12.629724      -35.145741       -4.809260
 H         -12.044405      -34.254128       -3.378052
 H         -10.447479      -35.926205       -3.631442
 H         -10.279696      -35.586185       -5.288182
