20
 generated by VMD
 C         -30.753721      -78.059647      -25.842371
 N         -31.858696      -77.651344      -26.056196
 H         -29.156433      -77.863503      -22.902449
 H         -29.822363      -78.351967      -25.237450
 C         -28.922235      -78.891594      -22.933720
 C         -27.514997      -79.240562      -23.322878
 C         -29.685446      -80.132706      -22.648643
 C         -26.780336      -79.858772      -22.169085
 C         -29.000664      -80.852982      -21.454233
 C         -27.534372      -81.052193      -21.502092
 H         -26.945179      -78.351540      -23.602465
 H         -27.561209      -79.866837      -24.170761
 H         -30.751522      -79.997803      -22.276323
 H         -29.652483      -80.753769      -23.494434
 H         -26.539286      -79.026863      -21.453171
 H         -25.844105      -80.287880      -22.483608
 H         -29.355879      -81.802536      -21.209578
 H         -29.300678      -80.486336      -20.464851
 H         -27.151844      -81.213783      -20.446955
 H         -27.231359      -82.057854      -22.049137
