20
 generated by VMD
 C         -43.300282     -121.058228      -35.561710
 N         -42.925438     -120.657410      -34.508324
 H         -44.055241     -121.800415      -38.592205
 H         -43.423920     -121.566353      -36.500252
 C         -44.228806     -120.703339      -38.820213
 C         -43.187302     -120.017349      -39.664146
 C         -45.387077     -119.878319      -38.375172
 C         -43.726658     -119.020645      -40.675358
 C         -45.892483     -118.786629      -39.371082
 C         -44.779961     -117.936356      -40.042847
 H         -42.633320     -120.716515      -40.188595
 H         -42.641026     -119.455086      -38.897961
 H         -46.266895     -120.433220      -38.142410
 H         -45.247932     -119.350418      -37.414082
 H         -44.329903     -119.431931      -41.542622
 H         -42.879642     -118.488319      -41.180191
 H         -46.381050     -118.019028      -38.805389
 H         -46.608101     -119.208862      -40.238941
 H         -45.203377     -117.305984      -40.885101
 H         -44.327381     -117.351601      -39.200348
