20
 generated by VMD
 C         -13.309457      -29.699890       -7.378252
 N         -13.582985      -29.192144       -8.338174
 H         -11.473841      -30.307127       -4.891037
 H         -10.224392      -30.129295       -3.764596
 C         -10.764000      -30.941761       -4.381735
 C          -9.780984      -31.445259       -5.436274
 C         -11.358671      -32.007416       -3.525668
 C          -8.686831      -32.437576       -4.914152
 C         -10.329376      -33.018177       -3.081877
 C          -9.427886      -33.536354       -4.138807
 H          -9.345439      -30.504814       -5.867895
 H         -10.314159      -32.020386       -6.232351
 H         -11.842491      -31.516691       -2.673250
 H         -12.202405      -32.541000       -4.037186
 H          -8.017155      -31.865108       -4.271438
 H          -8.037894      -32.826241       -5.702260
 H         -10.868447      -33.876328       -2.571484
 H          -9.670914      -32.587982       -2.353541
 H          -8.733326      -34.297783       -3.703700
 H          -9.955235      -34.169270       -4.867911
