20
 generated by VMD
 C         -30.135159      -79.995193      -26.287291
 N         -29.293594      -79.791931      -27.023460
 H         -28.640751      -82.491249      -25.502295
 H         -30.733326      -80.325020      -25.370518
 C         -29.304008      -82.768639      -24.640995
 C         -29.034838      -82.195679      -23.193371
 C         -29.949200      -84.209122      -24.654896
 C         -30.392103      -82.382278      -22.382946
 C         -31.338816      -84.140091      -23.972801
 C         -31.099037      -83.643684      -22.596647
 H         -28.856840      -81.100693      -23.385796
 H         -28.234886      -82.734840      -22.785175
 H         -30.075052      -84.440605      -25.760019
 H         -29.404762      -85.028282      -24.144606
 H         -31.020056      -81.559891      -22.540115
 H         -30.270725      -82.341225      -21.234240
 H         -31.890308      -85.126122      -23.997087
 H         -32.000645      -83.377998      -24.500256
 H         -32.196049      -83.528114      -22.113228
 H         -30.520124      -84.363289      -21.990831
