20
 generated by VMD
 C         -61.346714     -156.131104      -55.090618
 N         -60.418686     -155.842484      -55.649284
 H         -59.572803     -156.172897      -51.551853
 H         -62.184475     -156.511993      -54.535305
 C         -58.555744     -156.323593      -51.292873
 C         -57.749546     -155.124176      -50.878979
 C         -57.861824     -157.400696      -52.059521
 C         -56.281960     -155.366348      -50.379135
 C         -56.502731     -157.701889      -51.347122
 C         -55.595592     -156.415421      -51.150433
 H         -58.133896     -154.434280      -50.218342
 H         -57.681713     -154.600189      -51.836441
 H         -58.478748     -158.310303      -52.110588
 H         -57.767803     -157.073578      -53.110847
 H         -56.059589     -155.730743      -49.386032
 H         -55.790985     -154.382401      -50.274921
 H         -56.086166     -158.441910      -51.945759
 H         -56.631123     -158.161209      -50.343220
 H         -54.710510     -156.674347      -50.630219
 H         -55.361324     -156.022812      -52.187840
