20
 generated by VMD
 C         -60.146793     -156.521988      -55.503571
 N         -60.839165     -155.858917      -56.071178
 H         -59.732140     -157.718628      -52.714561
 H         -59.450657     -157.222794      -55.139030
 C         -58.753643     -158.006393      -52.809853
 C         -57.691959     -156.902908      -52.720757
 C         -58.329113     -159.331207      -52.338776
 C         -57.315971     -156.788742      -51.143528
 C         -58.066769     -159.154922      -50.865284
 C         -57.052135     -158.107040      -50.522903
 H         -58.119736     -156.005142      -53.048046
 H         -56.769325     -157.121155      -53.146141
 H         -59.220341     -159.956512      -52.459881
 H         -57.578064     -159.778091      -52.909748
 H         -58.144024     -156.248795      -50.591347
 H         -56.544777     -155.999512      -51.083237
 H         -57.846645     -160.081970      -50.435181
 H         -58.929768     -158.986923      -50.265869
 H         -56.856735     -158.042862      -49.401600
 H         -56.124508     -158.528641      -50.821846
