20
 generated by VMD
 C         -21.654282      -55.777214      -17.579527
 N         -20.686922      -55.407936      -18.027655
 H         -23.188847      -58.462936      -15.117948
 H         -22.593422      -56.341232      -17.546722
 C         -22.272045      -58.987179      -14.960386
 C         -21.613255      -58.881489      -13.575829
 C         -21.663361      -59.826519      -16.128355
 C         -20.974813      -60.230053      -13.143340
 C         -20.256371      -60.328415      -15.707210
 C         -20.320257      -61.052238      -14.275944
 H         -22.208387      -58.451424      -12.723536
 H         -20.893126      -58.095112      -13.738322
 H         -22.393101      -60.600727      -16.386179
 H         -21.625988      -59.177727      -16.985796
 H         -21.680573      -60.919117      -12.601819
 H         -20.204653      -60.022358      -12.385990
 H         -19.442667      -59.555946      -15.833840
 H         -19.908363      -61.085529      -16.435400
 H         -20.724981      -62.070438      -14.432999
 H         -19.292555      -61.112869      -14.059406
