20
 generated by VMD
 C         -79.447037     -205.472260      -70.899857
 N         -80.522301     -205.738129      -71.202934
 H         -77.239159     -203.164612      -70.234703
 H         -78.466751     -205.206940      -70.750702
 C         -76.136963     -203.194473      -70.144699
 C         -75.317810     -201.939056      -70.154800
 C         -75.515289     -204.493759      -69.594856
 C         -73.906929     -202.247482      -70.567802
 C         -74.146645     -204.289215      -69.005714
 C         -73.254311     -203.521790      -69.957222
 H         -75.323395     -201.479965      -69.154793
 H         -75.752426     -201.224152      -70.899216
 H         -76.130142     -204.943085      -68.782768
 H         -75.595482     -205.387970      -70.292206
 H         -73.378899     -201.368225      -70.142395
 H         -73.697327     -202.068893      -71.640121
 H         -73.802635     -205.364288      -68.805588
 H         -74.164810     -203.831390      -68.067596
 H         -72.438904     -203.379089      -69.288132
 H         -72.897842     -204.162201      -70.775833
