20
 generated by VMD
 C         -79.459503     -205.439178      -70.908485
 N         -80.293030     -206.084412      -71.393677
 H         -77.369591     -203.113525      -69.911209
 H         -78.605217     -204.722778      -70.776230
 C         -76.356796     -203.292099      -70.206627
 C         -75.298141     -202.276260      -70.404099
 C         -75.753441     -204.616837      -70.042419
 C         -73.834167     -202.634567      -70.432220
 C         -74.600616     -204.606964      -69.133682
 C         -73.425316     -203.961136      -69.713387
 H         -75.351974     -201.491608      -69.696556
 H         -75.519852     -201.746414      -71.375351
 H         -76.505394     -205.308670      -69.754822
 H         -75.489021     -205.087143      -70.922951
 H         -73.282509     -201.807999      -69.963005
 H         -73.536118     -202.668777      -71.534683
 H         -74.335327     -205.621735      -68.715286
 H         -74.883766     -204.101120      -68.183014
 H         -72.572701     -203.740829      -68.973442
 H         -72.923073     -204.591415      -70.471825
