20
 generated by VMD
 C         -60.729141     -153.935287      -51.374382
 N         -61.365700     -154.343735      -52.191147
 H         -57.557236     -153.827454      -52.505249
 H         -60.233543     -153.536285      -50.529350
 C         -56.786106     -153.459427      -51.845200
 C         -56.835598     -153.916641      -50.449650
 C         -55.749294     -152.486099      -52.292500
 C         -55.511482     -154.072433      -49.671455
 C         -54.395954     -152.869492      -51.561649
 C         -54.536095     -152.975601      -50.066490
 H         -57.347572     -154.863785      -50.264881
 H         -57.406406     -153.220123      -49.803356
 H         -55.717613     -152.360550      -53.423725
 H         -56.062729     -151.499237      -51.926842
 H         -54.994888     -155.040359      -49.780403
 H         -55.643536     -154.071609      -48.545414
 H         -53.899246     -151.971085      -51.808372
 H         -53.816944     -153.825226      -51.912567
 H         -53.522018     -152.923828      -49.563969
 H         -55.075489     -152.060059      -49.616730
