20
 generated by VMD
 C         -38.013542     -109.902298      -36.295002
 N         -37.462372     -108.908546      -36.050247
 H         -40.277164     -112.977684      -36.717842
 H         -38.691536     -110.746040      -36.289318
 C         -41.237209     -112.912277      -36.191803
 C         -42.452854     -113.808090      -36.622650
 C         -41.514984     -111.814949      -35.141285
 C         -43.276230     -114.129074      -35.314144
 C         -42.438282     -112.254051      -34.035080
 C         -43.714916     -112.859848      -34.617004
 H         -42.103405     -114.816841      -36.933231
 H         -43.098827     -113.284096      -37.336842
 H         -40.486252     -111.368515      -34.855118
 H         -42.060123     -111.055862      -35.795349
 H         -42.686573     -114.786346      -34.666904
 H         -44.173740     -114.863640      -35.470013
 H         -42.779911     -111.339348      -33.401463
 H         -41.846535     -112.997444      -33.349255
 H         -44.445244     -113.060837      -33.932442
 H         -44.189587     -112.096748      -35.351223
