20
 generated by VMD
 C          -9.977802      -36.316853       -7.131399
 N         -10.124898      -36.753761       -8.174965
 H         -13.373680      -38.188278       -7.932176
 H         -14.619627      -38.525990       -6.758255
 C         -14.151396      -38.833778       -7.737719
 C         -13.528568      -40.242149       -7.604525
 C         -15.281796      -38.808575       -8.801249
 C         -14.532893      -41.456539       -7.468611
 C         -16.354294      -39.947189       -8.530757
 C         -15.676893      -41.329700       -8.543287
 H         -12.802511      -40.263771       -6.771415
 H         -12.795868      -40.411339       -8.444850
 H         -15.708857      -37.847565       -8.820157
 H         -14.893967      -38.899853       -9.828918
 H         -15.025107      -41.515209       -6.517062
 H         -13.950228      -42.391720       -7.540142
 H         -17.132315      -39.918079       -9.249621
 H         -16.873960      -39.765118       -7.513697
 H         -16.370480      -42.124233       -8.436461
 H         -15.257626      -41.399303       -9.555829
