20
 generated by VMD
 C         -44.656796     -122.436935      -36.098869
 N         -44.132500     -121.671524      -35.336987
 H         -45.028397     -122.808006      -39.241295
 H         -45.283066     -122.997398      -36.715851
 C         -44.924541     -121.732376      -39.526478
 C         -43.507061     -121.286896      -39.462677
 C         -45.998039     -120.703819      -39.395401
 C         -43.341515     -119.946304      -40.253746
 C         -45.695408     -119.415131      -40.223015
 C         -44.305168     -118.895340      -39.856270
 H         -42.661266     -122.056427      -39.787434
 H         -43.275993     -121.027191      -38.412067
 H         -46.955276     -121.010559      -39.757812
 H         -46.115845     -120.650414      -38.329624
 H         -43.445915     -120.187477      -41.320126
 H         -42.240253     -119.734329      -40.308891
 H         -46.473087     -118.681313      -39.965153
 H         -46.043671     -119.578247      -41.326893
 H         -44.067188     -117.918579      -40.203133
 H         -44.292805     -118.849808      -38.797813
