20
 generated by VMD
 C         -19.288715      -49.959373       -9.389888
 N         -19.586840      -51.049866       -9.636015
 H         -16.789490      -47.724918       -9.997253
 H         -18.617989      -48.945351       -8.919263
 C         -16.605167      -47.899364      -11.036995
 C         -15.712720      -48.989445      -11.505836
 C         -17.311296      -47.118515      -12.124879
 C         -16.187700      -49.786015      -12.750652
 C         -17.995998      -48.084934      -13.056215
 C         -16.939892      -48.890564      -13.748473
 H         -15.618243      -49.603432      -10.638028
 H         -14.710327      -48.568695      -11.716243
 H         -18.061420      -46.450127      -11.635824
 H         -16.499125      -46.494335      -12.548264
 H         -16.789917      -50.595383      -12.438810
 H         -15.340787      -50.169720      -13.299737
 H         -18.571180      -47.594440      -13.796289
 H         -18.745785      -48.690617      -12.452413
 H         -17.344290      -49.389603      -14.629425
 H         -16.204924      -48.181606      -14.125677
