20
 generated by VMD
 C         -10.368223      -35.740997       -8.142363
 N         -10.111646      -35.706871       -9.235689
 H         -13.460208      -37.137203       -6.778924
 H         -14.669618      -37.931660       -5.778748
 C         -14.064565      -38.035110       -6.695733
 C         -13.157731      -39.219563       -6.702280
 C         -15.011172      -38.014427       -7.924366
 C         -13.846402      -40.489613       -6.913103
 C         -15.782900      -39.331657       -7.969289
 C         -14.829567      -40.461147       -8.047503
 H         -12.583154      -39.169106       -5.742475
 H         -12.410843      -39.067760       -7.524367
 H         -15.781534      -37.200722       -7.926593
 H         -14.466474      -37.989594       -8.839843
 H         -14.408570      -40.768047       -6.004364
 H         -13.138391      -41.278259       -7.091416
 H         -16.469412      -39.384026       -8.861510
 H         -16.361517      -39.390671       -7.095853
 H         -15.347520      -41.450047       -8.098287
 H         -14.274399      -40.396713       -8.976466
