20
 generated by VMD
 C         -31.238209      -75.690643      -21.509592
 N         -32.323967      -75.338394      -21.438654
 H         -27.748549      -75.634758      -20.025036
 H         -30.256088      -75.950195      -21.668003
 C         -27.014420      -75.337440      -20.727571
 C         -26.489321      -76.451927      -21.476299
 C         -26.030701      -74.191887      -20.446199
 C         -25.892904      -75.991821      -22.804720
 C         -25.400208      -73.710472      -21.787241
 C         -24.832911      -74.947166      -22.476320
 H         -27.338022      -77.031174      -21.752308
 H         -25.770098      -76.864090      -20.797905
 H         -26.663778      -73.482918      -19.941217
 H         -25.270750      -74.614639      -19.682749
 H         -26.589899      -75.547829      -23.581072
 H         -25.416817      -76.924850      -23.206465
 H         -24.573992      -72.999519      -21.595476
 H         -26.224897      -73.218338      -22.322098
 H         -24.343336      -74.637199      -23.439131
 H         -23.885416      -75.174553      -21.953651
