20
 generated by VMD
 C         -58.504883     -161.481964      -56.251347
 N         -58.280964     -160.367081      -56.295944
 H         -59.821770     -165.084854      -55.156807
 H         -58.807205     -162.505310      -56.179764
 C         -60.315903     -164.276108      -54.707355
 C         -59.769600     -163.538818      -53.600632
 C         -61.798222     -164.356491      -54.834652
 C         -60.445778     -162.278275      -53.293034
 C         -62.270226     -162.952927      -54.778267
 C         -61.921463     -162.310318      -53.468025
 H         -58.690033     -163.344696      -53.908501
 H         -59.441422     -164.153961      -52.698414
 H         -62.087780     -164.867004      -55.687195
 H         -62.233871     -164.923370      -53.956451
 H         -60.106976     -161.466278      -53.966354
 H         -60.380905     -162.003448      -52.314754
 H         -63.328899     -162.845612      -54.953983
 H         -61.786533     -162.404694      -55.617378
 H         -62.282036     -161.302551      -53.546692
 H         -62.378429     -162.863983      -52.667980
