20
 generated by VMD
 C         -30.990761      -77.640907      -25.300756
 N         -32.005299      -77.073212      -25.517479
 H         -29.365475      -77.177055      -22.574528
 H         -30.228212      -78.206001      -24.831638
 C         -28.577478      -77.782265      -22.203424
 C         -27.463217      -78.047791      -23.195662
 C         -29.060158      -78.859306      -21.372877
 C         -26.305914      -78.771378      -22.514811
 C         -27.872025      -79.668465      -20.871239
 C         -26.814812      -80.061401      -21.899801
 H         -27.127445      -77.050835      -23.543255
 H         -27.894375      -78.811623      -23.840504
 H         -29.488197      -78.485260      -20.476154
 H         -29.700418      -79.582397      -21.952023
 H         -25.765495      -78.101631      -21.830034
 H         -25.455364      -79.024490      -23.209358
 H         -28.263155      -80.570442      -20.555481
 H         -27.481220      -79.343124      -19.929243
 H         -25.994724      -80.613281      -21.462452
 H         -27.173752      -80.823463      -22.705925
