20
 generated by VMD
 C         -15.095210      -45.849705       -7.123387
 N         -14.618389      -46.762005       -6.698031
 H         -15.556717      -44.169685       -9.074513
 H         -14.518911      -44.423359      -10.596079
 C         -15.553938      -44.445740      -10.150718
 C         -16.434345      -43.419960      -10.862259
 C         -16.101120      -45.854847      -10.270960
 C         -16.655340      -43.842785      -12.330255
 C         -16.343679      -46.233467      -11.692537
 C         -17.182070      -45.293633      -12.456345
 H         -15.925817      -42.469734      -10.777675
 H         -17.385132      -43.363968      -10.283933
 H         -15.316991      -46.512527       -9.807160
 H         -17.099728      -46.004967       -9.821959
 H         -15.711658      -43.730217      -12.884450
 H         -17.375557      -43.129040      -12.764534
 H         -16.750599      -47.267864      -11.828730
 H         -15.358784      -46.213810      -12.276500
 H         -17.231709      -45.706764      -13.485568
 H         -18.267632      -45.251072      -12.162359
