20
 generated by VMD
 C         -68.493210     -186.123001      -67.786079
 N         -68.334427     -187.261749      -67.526733
 H         -68.317383     -187.878723      -64.513870
 H         -68.622955     -185.097000      -68.014610
 C         -69.124870     -187.679977      -63.743484
 C         -68.892998     -187.153793      -62.286823
 C         -70.514488     -187.578278      -64.299492
 C         -69.889015     -188.033081      -61.414032
 C         -71.591721     -188.039795      -63.252491
 C         -71.329094     -187.737137      -61.817612
 H         -69.091484     -186.124008      -62.016506
 H         -67.882820     -187.464066      -61.971386
 H         -70.632614     -186.535980      -64.586098
 H         -70.634766     -188.148117      -65.155518
 H         -69.910904     -187.783432      -60.379425
 H         -69.546982     -189.059311      -61.499359
 H         -71.526497     -189.165466      -63.370392
 H         -72.563248     -187.578232      -63.486515
 H         -71.471550     -186.660660      -61.658115
 H         -71.853683     -188.419388      -61.046597
