20
 generated by VMD
 C          -9.611158      -25.018200        0.637736
 N         -10.641812      -25.467390        0.666552
 H          -6.263553      -23.437521       -0.782108
 H          -7.931987      -23.050482       -1.118079
 C          -6.984218      -23.327757       -1.627045
 C          -7.132040      -24.713068       -2.359353
 C          -6.342442      -22.326962       -2.594074
 C          -8.119336      -24.599096       -3.567062
 C          -7.296828      -22.198624       -3.805905
 C          -7.715299      -23.444092       -4.520235
 H          -7.530133      -25.417006       -1.632764
 H          -6.124192      -25.116657       -2.743018
 H          -6.317575      -21.330585       -2.183225
 H          -5.330144      -22.661314       -2.933011
 H          -9.096658      -24.374750       -3.211548
 H          -8.082207      -25.519314       -4.132760
 H          -6.704142      -21.601555       -4.522662
 H          -8.155076      -21.569740       -3.509918
 H          -8.557804      -23.149923       -5.112694
 H          -6.909250      -23.832430       -5.153634
