20
 generated by VMD
 C         -40.005684     -107.336807      -37.802269
 N         -39.129230     -106.601654      -37.845718
 H         -39.144932     -108.533340      -35.166397
 H         -40.732834     -108.144058      -37.607037
 C         -39.672455     -109.058861      -34.294846
 C         -38.959064     -110.127106      -33.458130
 C         -41.159523     -108.974983      -34.191166
 C         -39.709797     -110.928795      -32.408417
 C         -41.791866     -109.646545      -32.976048
 C         -41.269199     -111.062080      -32.792419
 H         -38.226234     -109.511543      -32.950066
 H         -38.351078     -110.619011      -34.164555
 H         -41.416504     -107.893806      -34.135044
 H         -41.529552     -109.318176      -35.188469
 H         -39.736111     -110.354752      -31.394472
 H         -39.084312     -111.881554      -32.236889
 H         -42.851303     -109.754730      -33.059872
 H         -41.538265     -109.037117      -32.155407
 H         -41.876667     -111.606224      -32.137318
 H         -41.349678     -111.582207      -33.761993
