20
 generated by VMD
 C         -51.100498     -145.267502      -44.341934
 N         -51.114380     -146.351227      -44.639191
 H         -53.395256     -144.548035      -46.404343
 H         -51.082798     -144.240631      -44.159950
 C         -53.670788     -144.060257      -47.318043
 C         -52.615746     -143.859177      -48.487446
 C         -54.678120     -142.962021      -47.252636
 C         -53.384018     -143.697601      -49.780426
 C         -55.460522     -142.820786      -48.592422
 C         -54.531437     -142.649948      -49.714882
 H         -51.889183     -144.608353      -48.558754
 H         -52.019199     -142.946014      -48.231018
 H         -55.269875     -143.174744      -46.331264
 H         -54.257271     -142.068771      -46.982552
 H         -54.022900     -144.572784      -50.046230
 H         -52.795567     -143.476212      -50.717461
 H         -55.975830     -141.851974      -48.610672
 H         -56.137131     -143.764252      -48.783955
 H         -55.104465     -142.559830      -50.655266
 H         -54.069191     -141.690765      -49.613815
