20
 generated by VMD
 C         -68.052849     -192.851883      -66.319870
 N         -68.672287     -193.050171      -67.295982
 H         -69.869659     -189.914566      -65.339012
 H         -67.679916     -192.687317      -65.345703
 C         -70.964439     -190.176682      -65.253693
 C         -71.562454     -190.961670      -66.393791
 C         -71.559380     -190.291183      -63.838161
 C         -72.567474     -192.006256      -65.919144
 C         -73.122345     -190.431595      -63.950817
 C         -73.572418     -191.556198      -64.959328
 H         -70.780693     -191.374695      -67.042305
 H         -72.086838     -190.164032      -67.033936
 H         -71.165497     -191.162674      -63.385677
 H         -71.235435     -189.364990      -63.256847
 H         -71.911125     -192.709457      -65.525337
 H         -73.030510     -192.535721      -66.723946
 H         -73.528000     -189.434143      -64.359596
 H         -73.708565     -190.569717      -63.021225
 H         -73.891312     -192.427872      -64.358269
 H         -74.381279     -191.259613      -65.687912
