20
 generated by VMD
 C         -21.941683      -55.245266      -17.356340
 N         -22.122335      -55.565346      -18.486492
 H         -22.217291      -57.751591      -14.528293
 H         -21.870804      -55.227776      -16.361771
 C         -21.235466      -57.587685      -14.179824
 C         -20.980833      -58.334595      -12.865660
 C         -20.195297      -57.899879      -15.250250
 C         -20.749868      -59.866116      -13.103604
 C         -20.045080      -59.416714      -15.564106
 C         -19.848465      -60.281006      -14.279020
 H         -21.835567      -58.152775      -12.188618
 H         -20.087633      -57.865536      -12.441872
 H         -20.337246      -57.153656      -16.090963
 H         -19.213671      -57.717167      -14.807097
 H         -21.731497      -60.303673      -13.383884
 H         -20.421112      -60.310299      -12.159844
 H         -19.279934      -59.692295      -16.322109
 H         -21.008163      -59.671116      -15.975154
 H         -19.912109      -61.338764      -14.543131
 H         -18.858204      -60.189083      -13.913278
