20
 generated by VMD
 C         -38.769703     -111.834808      -35.895679
 N         -38.473106     -111.264099      -36.878864
 H         -40.768909     -115.020439      -34.987755
 H         -39.132889     -112.461166      -35.030682
 C         -41.498447     -114.388145      -35.330441
 C         -41.779934     -114.364113      -36.823093
 C         -42.234695     -113.300110      -34.580372
 C         -43.272522     -114.468353      -37.082432
 C         -43.716942     -113.237999      -34.832821
 C         -43.959370     -113.211906      -36.302525
 H         -41.190952     -115.155571      -37.241688
 H         -41.309490     -113.415710      -37.011959
 H         -42.065228     -113.523300      -33.527496
 H         -41.722748     -112.368317      -34.890015
 H         -43.688904     -115.390099      -36.681488
 H         -43.583210     -114.325569      -38.099640
 H         -43.989700     -112.299950      -34.300423
 H         -44.301666     -114.092453      -34.393917
 H         -45.132969     -113.082001      -36.526749
 H         -43.420265     -112.392883      -36.804775
