20
 generated by VMD
 C         -22.121952      -52.256039      -11.456930
 N         -21.931833      -52.793995      -10.512591
 H         -19.895729      -52.321560      -14.284584
 H         -22.342890      -51.675426      -12.583283
 C         -18.925467      -52.199524      -13.866353
 C         -17.900326      -51.613327      -14.844354
 C         -18.588692      -52.155212      -12.404003
 C         -16.468216      -52.119431      -14.546793
 C         -17.170713      -51.558689      -12.110428
 C         -16.164442      -52.189819      -13.049246
 H         -17.922625      -50.532513      -14.802706
 H         -18.103130      -51.941910      -15.845877
 H         -19.273085      -51.586109      -11.792639
 H         -18.610704      -53.223888      -12.085718
 H         -15.813665      -51.307468      -14.962649
 H         -16.156895      -53.040821      -15.114023
 H         -16.976854      -51.725685      -11.040095
 H         -17.141508      -50.473026      -12.279576
 H         -15.135338      -51.815144      -12.899975
 H         -16.063211      -53.208172      -12.649369
