20
 generated by VMD
 C         -12.999108      -28.556189       -5.194246
 N         -12.853356      -27.530409       -5.599874
 H         -11.279433      -30.869532       -3.119957
 H         -11.147762      -29.430395       -4.050108
 C         -10.510371      -30.239824       -3.586149
 C          -9.693310      -30.906263       -4.696041
 C          -9.604318      -29.614513       -2.487505
 C          -8.734793      -29.954269       -5.344272
 C          -8.493487      -28.645376       -3.142829
 C          -7.773733      -29.338530       -4.301087
 H         -10.223821      -31.446661       -5.520321
 H          -9.164248      -31.716553       -4.207241
 H         -10.125885      -29.166775       -1.657864
 H          -9.006755      -30.447512       -2.045934
 H          -9.238074      -29.133585       -5.866333
 H          -8.213076      -30.451656       -6.163919
 H          -7.814857      -28.337803       -2.315619
 H          -9.012594      -27.713848       -3.385464
 H          -7.019364      -28.745897       -4.795677
 H          -7.285910      -30.254669       -3.873818
