20
 generated by VMD
 C          -1.878998       -8.666992       -0.469755
 N          -2.138703       -7.950101        0.327846
 H          -3.297809       -9.357497        2.586403
 H          -1.909915      -10.354563        2.837722
 C          -2.982298      -10.371819        2.986825
 C          -3.649724      -11.451139        2.187628
 C          -3.251116      -10.504179        4.444334
 C          -3.476338      -12.865647        2.647799
 C          -3.015892      -11.970689        4.962777
 C          -3.767882      -12.981688        4.102087
 H          -3.309718      -11.321335        1.155704
 H          -4.719140      -11.288621        2.068565
 H          -2.754905       -9.826781        5.052860
 H          -4.276586      -10.211569        4.556213
 H          -2.433465      -13.202302        2.501737
 H          -4.112309      -13.611945        2.091817
 H          -3.260629      -11.949933        6.016469
 H          -1.928316      -12.113358        4.855537
 H          -3.469547      -14.002251        4.403874
 H          -4.876487      -12.944362        4.284345
