20
 generated by VMD
 C         -41.369225     -119.254578      -34.636456
 N         -40.593590     -119.501640      -35.500328
 H         -43.435886     -117.738716      -36.558784
 H         -41.985104     -119.225594      -33.802113
 C         -43.912369     -117.817932      -37.477833
 C         -42.902393     -118.002495      -38.625591
 C         -45.210491     -117.140709      -37.574715
 C         -43.705833     -118.447533      -39.808102
 C         -45.945366     -117.696938      -38.794361
 C         -45.031395     -117.748665      -39.977924
 H         -42.197544     -118.726181      -38.221798
 H         -42.312340     -117.181877      -38.859814
 H         -45.853668     -117.244125      -36.746845
 H         -45.012413     -116.006096      -37.629333
 H         -43.807468     -119.529991      -39.783653
 H         -43.022820     -118.332710      -40.565971
 H         -46.993973     -117.201012      -38.960331
 H         -46.312347     -118.759789      -38.632423
 H         -45.573761     -118.336411      -40.698952
 H         -44.992661     -116.681862      -40.511902
