20
 generated by VMD
 C         -40.694084     -100.057495      -29.788357
 N         -40.409130     -100.256104      -28.680832
 H         -37.352020      -99.869850      -30.598362
 H         -41.074146     -100.065262      -30.751619
 C         -36.399807      -99.431969      -30.767746
 C         -35.903908      -99.469635      -32.227745
 C         -35.385887      -99.420486      -29.746094
 C         -34.887165      -98.437469      -32.508778
 C         -34.265556      -98.415443      -30.019161
 C         -33.841667      -98.306625      -31.416365
 H         -36.773113      -99.265373      -32.883602
 H         -35.527470     -100.481529      -32.382328
 H         -35.934566      -99.039040      -28.886251
 H         -34.991875     -100.403526      -29.578129
 H         -35.223316      -97.444847      -32.574894
 H         -34.333179      -98.700226      -33.398571
 H         -33.415649      -98.712227      -29.343641
 H         -34.623932      -97.422157      -29.786150
 H         -33.302341      -97.416298      -31.549633
 H         -33.044880      -99.117653      -31.429901
