20
 generated by VMD
 C         -30.505844      -94.029335      -25.878223
 N         -30.409077      -93.617622      -24.791101
 H         -33.880768      -92.805458      -26.942007
 H         -30.410400      -94.488396      -26.941933
 C         -34.318413      -92.376160      -27.801409
 C         -35.775471      -92.674713      -28.105669
 C         -33.409637      -91.974548      -28.916731
 C         -36.300961      -91.407135      -28.706816
 C         -33.948711      -90.897644      -29.750381
 C         -35.484695      -90.912575      -29.902666
 H         -36.124001      -92.946404      -27.033047
 H         -35.831924      -93.483406      -28.905029
 H         -32.451855      -91.568413      -28.487114
 H         -33.025108      -92.962105      -29.378384
 H         -36.285774      -90.585991      -28.009407
 H         -37.332973      -91.451691      -29.060665
 H         -33.439980      -90.877411      -30.762144
 H         -33.710457      -89.936584      -29.329063
 H         -35.805115      -89.878860      -30.303411
 H         -35.826427      -91.594475      -30.740614
