20
 generated by VMD
 C         -50.022861     -144.093399      -44.354244
 N         -49.277458     -143.720245      -45.185024
 H         -52.108692     -141.880203      -45.775597
 H         -50.609547     -144.347321      -43.439846
 C         -52.870079     -141.812912      -46.531841
 C         -52.293781     -141.935547      -47.863010
 C         -54.308758     -141.377441      -46.316360
 C         -53.254810     -142.433853      -48.958225
 C         -55.193130     -142.000031      -47.444088
 C         -54.542530     -141.704666      -48.841770
 H         -51.557133     -142.677902      -47.822540
 H         -51.930904     -140.966568      -48.009205
 H         -54.622612     -141.844238      -45.418125
 H         -54.435074     -140.266602      -46.463383
 H         -53.144489     -143.557907      -48.870125
 H         -52.862709     -142.106552      -49.953033
 H         -56.214573     -141.619568      -47.325989
 H         -55.307190     -143.090057      -47.449432
 H         -55.310856     -141.882584      -49.625767
 H         -54.420284     -140.579819      -48.884708
