20
 generated by VMD
 C         -38.835148     -111.422195      -36.469330
 N         -38.356125     -110.377708      -36.536350
 H         -40.210552     -114.166191      -34.989754
 H         -39.157051     -112.418503      -36.543644
 C         -41.024899     -113.504951      -35.390640
 C         -41.723545     -113.823418      -36.638309
 C         -41.751160     -112.675240      -34.365349
 C         -43.172058     -114.143410      -36.529049
 C         -43.327328     -112.885384      -34.387135
 C         -43.895187     -112.983757      -35.789013
 H         -41.181602     -114.697952      -37.131474
 H         -41.703987     -112.974770      -37.322117
 H         -41.494610     -112.838188      -33.345837
 H         -41.739178     -111.647751      -34.648647
 H         -43.547916     -115.101158      -36.230503
 H         -43.447655     -114.152016      -37.546490
 H         -43.777920     -111.942284      -34.001041
 H         -43.406971     -113.816704      -33.856552
 H         -44.908958     -113.233849      -35.936626
 H         -43.723141     -112.012764      -36.423710
