20
 generated by VMD
 C         -79.516136     -206.866867      -74.687294
 N         -80.256248     -206.033569      -74.269791
 H         -78.375664     -206.839462      -71.851646
 H         -78.966019     -207.659317      -75.168419
 C         -77.412819     -207.000015      -71.277115
 C         -76.109772     -206.178802      -71.509590
 C         -77.309372     -208.253555      -70.399002
 C         -75.382675     -205.992447      -70.206985
 C         -76.395042     -208.113953      -69.212517
 C         -75.182663     -207.369858      -69.556313
 H         -76.309845     -205.203186      -71.883018
 H         -75.668060     -206.675018      -72.359123
 H         -78.343452     -208.393112      -69.970695
 H         -77.113846     -209.191544      -70.986130
 H         -76.103439     -205.398010      -69.626953
 H         -74.439034     -205.519623      -70.151062
 H         -76.227112     -209.040802      -68.714081
 H         -76.971176     -207.402206      -68.511971
 H         -74.809654     -207.226151      -68.504967
 H         -74.496353     -207.982422      -70.069710
