20
 generated by VMD
 C         -42.097351     -120.383217      -34.833801
 N         -42.447960     -121.283478      -34.171482
 H         -43.684948     -120.168900      -37.674774
 H         -41.943398     -119.370430      -35.233196
 C         -44.019516     -119.454407      -38.360916
 C         -43.069218     -118.995445      -39.459801
 C         -45.259430     -118.623756      -38.095371
 C         -43.894196     -118.841087      -40.765957
 C         -46.017704     -118.560829      -39.327309
 C         -45.192093     -118.138954      -40.526047
 H         -42.244591     -119.721657      -39.624386
 H         -42.550953     -118.133972      -39.247189
 H         -45.728893     -119.017822      -37.196583
 H         -45.018448     -117.641487      -37.789986
 H         -44.065502     -119.821472      -41.256329
 H         -43.203865     -118.361450      -41.477013
 H         -47.057995     -117.909134      -39.280407
 H         -46.359077     -119.568611      -39.628365
 H         -45.604385     -118.025856      -41.500179
 H         -44.859661     -117.127602      -40.310341
