20
 generated by VMD
 C         -50.823357     -129.639603      -46.017696
 N         -50.872437     -130.438538      -45.202847
 H         -47.853062     -131.487289      -44.278667
 H         -50.881176     -129.223419      -46.985424
 C         -47.981995     -131.510071      -43.205494
 C         -48.298447     -132.769623      -42.394371
 C         -47.937374     -130.196274      -42.490707
 C         -47.509026     -132.824905      -41.147984
 C         -47.183910     -130.305176      -41.161152
 C         -47.599499     -131.584290      -40.380981
 H         -48.103428     -133.665192      -42.968044
 H         -49.438499     -132.896362      -42.125412
 H         -47.395634     -129.433838      -43.177814
 H         -49.029873     -129.936279      -42.425861
 H         -46.543793     -133.063858      -41.569458
 H         -47.894291     -133.661758      -40.545090
 H         -47.377186     -129.433319      -40.522499
 H         -46.047565     -130.448090      -41.390923
 H         -46.945618     -131.534271      -39.498367
 H         -48.605091     -131.410187      -39.917820
