20
 generated by VMD
 C         -51.308296     -127.769798      -41.444996
 N         -51.885113     -128.667282      -41.864231
 H         -47.477661     -128.178436      -40.727177
 H         -50.561840     -127.046913      -41.214310
 C         -46.625866     -127.391350      -40.825680
 C         -45.309490     -127.742912      -40.084698
 C         -46.749813     -125.969482      -41.125519
 C         -44.077267     -127.186394      -40.764965
 C         -45.548779     -125.401573      -41.854660
 C         -44.241913     -125.687393      -41.186604
 H         -45.034206     -128.831284      -39.960842
 H         -45.311626     -127.201500      -39.111660
 H         -47.732544     -125.676422      -41.684196
 H         -46.883930     -125.333176      -40.318008
 H         -43.696590     -127.853638      -41.494530
 H         -43.281399     -127.192879      -40.017548
 H         -45.494072     -124.325127      -41.974125
 H         -45.531834     -125.791252      -42.898716
 H         -43.334225     -125.394051      -41.644680
 H         -44.210220     -125.137611      -40.218578
