20
 generated by VMD
 C         -31.163542      -75.554367      -23.485733
 N         -30.913620      -76.024223      -24.508797
 H         -29.483639      -78.629402      -21.865824
 H         -31.548035      -75.171295      -22.645765
 C         -28.459538      -78.160027      -21.847260
 C         -27.495943      -78.364769      -23.062574
 C         -27.884327      -78.009850      -20.508078
 C         -26.491861      -77.241615      -23.039028
 C         -26.830606      -76.926186      -20.637014
 C         -25.830563      -77.070763      -21.709305
 H         -28.035494      -78.203522      -23.915485
 H         -26.910168      -79.289009      -22.898907
 H         -28.504850      -77.683731      -19.692076
 H         -27.376295      -79.038460      -20.243378
 H         -27.109470      -76.349663      -23.286999
 H         -25.812780      -77.404640      -23.856432
 H         -26.273937      -76.840607      -19.653734
 H         -27.329191      -76.004234      -20.879650
 H         -24.989025      -76.340675      -21.653366
 H         -25.186438      -78.008446      -21.524309
