20
 generated by VMD
 C         -20.509438      -52.257816       -9.693605
 N         -21.185827      -51.819740      -10.501045
 H         -18.484262      -49.474831      -10.852274
 H         -20.042496      -52.875023       -8.882262
 C         -17.868425      -49.639103      -11.691418
 C         -17.384043      -51.011574      -12.085665
 C         -17.203779      -48.408890      -12.235311
 C         -16.760941      -51.074905      -13.522285
 C         -16.870586      -48.587124      -13.730536
 C         -16.036324      -49.823318      -13.935050
 H         -18.294270      -51.641376      -12.157532
 H         -16.743549      -51.439056      -11.336182
 H         -17.802969      -47.496498      -12.019783
 H         -16.260427      -48.266605      -11.677274
 H         -17.614725      -51.196667      -14.216824
 H         -16.133718      -52.020584      -13.518604
 H         -16.354235      -47.715687      -14.189730
 H         -17.925404      -48.753975      -14.139676
 H         -15.679568      -49.876160      -14.982459
 H         -15.122506      -49.759930      -13.328989
