20
 generated by VMD
 C         -50.066830     -144.556534      -44.388290
 N         -49.302498     -143.857132      -44.934280
 H         -52.506847     -142.452438      -45.693718
 H         -50.769463     -145.034027      -43.746365
 C         -53.054573     -142.233795      -46.619663
 C         -52.359756     -142.054428      -47.959511
 C         -54.405041     -141.556992      -46.471352
 C         -53.258991     -142.553207      -49.094940
 C         -55.236488     -141.969284      -47.631271
 C         -54.575661     -141.839310      -48.944202
 H         -51.439854     -142.575638      -47.874294
 H         -52.264030     -140.970169      -48.142433
 H         -54.997646     -141.872025      -45.649826
 H         -54.350151     -140.445984      -46.599026
 H         -53.626507     -143.677048      -48.982132
 H         -52.644112     -142.451996      -50.050041
 H         -56.064331     -141.281693      -47.785095
 H         -55.743473     -142.930176      -47.341541
 H         -55.371761     -142.259644      -49.642406
 H         -54.522438     -140.694855      -49.220753
