20
 generated by VMD
 C         -38.678005     -107.994774      -37.356552
 N         -38.959476     -107.075035      -38.018276
 H         -40.144485     -108.318092      -34.812325
 H         -38.266373     -108.956497      -36.998100
 C         -40.599487     -109.268700      -34.628654
 C         -39.561226     -110.403793      -34.343243
 C         -41.979355     -109.370178      -34.049873
 C         -39.857819     -111.185951      -33.041035
 C         -42.047394     -110.211693      -32.743446
 C         -41.276306     -111.483109      -32.886238
 H         -38.513454     -109.934410      -34.339722
 H         -39.546928     -111.168999      -35.187088
 H         -42.389416     -108.386299      -33.840969
 H         -42.578243     -109.962646      -34.784584
 H         -39.506359     -110.680061      -32.126759
 H         -39.479820     -112.135063      -33.108448
 H         -43.175690     -110.389145      -32.606613
 H         -41.645153     -109.660278      -31.816046
 H         -41.362110     -112.037025      -31.997206
 H         -41.677502     -112.241943      -33.664818
