20
 generated by VMD
 C         -40.558655     -100.196022      -30.311621
 N         -41.320839     -100.511581      -29.512211
 H         -37.042599     -101.206459      -30.771381
 H         -39.721821     -100.106438      -31.029911
 C         -36.359947     -100.355263      -30.855625
 C         -36.208855     -100.016975      -32.309616
 C         -35.339806     -100.228615      -29.920824
 C         -35.287495      -98.908325      -32.379032
 C         -34.412910      -99.016907      -30.010958
 C         -34.002338      -98.927589      -31.527897
 H         -37.264214      -99.835258      -32.667767
 H         -35.823994     -100.880051      -32.843273
 H         -35.845829     -100.040207      -28.916008
 H         -34.804077     -101.150116      -29.854673
 H         -35.716381      -97.993317      -32.076061
 H         -34.872726      -98.832718      -33.398254
 H         -33.527473      -99.262688      -29.414745
 H         -34.787689      -98.085312      -29.717707
 H         -33.393585      -98.020927      -31.792597
 H         -33.287601      -99.769257      -31.679394
