20
 generated by VMD
 C          -1.965503       -8.679028       -0.637917
 N          -2.025923       -8.006274        0.277309
 H          -3.212119       -9.321985        2.748896
 H          -1.985696      -10.501474        2.993346
 C          -3.046386      -10.421445        3.050988
 C          -3.584221      -11.443453        2.048021
 C          -3.348875      -10.640794        4.539113
 C          -3.396619      -12.883910        2.633095
 C          -3.090429      -12.081090        4.986072
 C          -3.881763      -13.014939        4.110554
 H          -3.192930      -11.262965        1.059375
 H          -4.667701      -11.305286        1.886616
 H          -2.734958      -10.028663        5.166887
 H          -4.379133      -10.344153        4.688138
 H          -2.343245      -13.201593        2.525004
 H          -4.007191      -13.593244        2.043921
 H          -3.357986      -12.049465        6.040671
 H          -1.979677      -12.238105        4.855257
 H          -3.691765      -14.041434        4.454983
 H          -4.981816      -12.849973        4.130152
