20
 generated by VMD
 C         -50.400887     -129.405960      -43.109524
 N         -50.503448     -128.298355      -43.322014
 H         -48.592236     -128.017044      -39.947639
 H         -50.084148     -130.426178      -43.130116
 C         -47.551533     -127.908669      -40.324242
 C         -46.497162     -128.791931      -39.887516
 C         -47.250668     -126.591278      -40.998737
 C         -45.474228     -129.011200      -41.025841
 C         -46.254147     -126.734116      -42.061207
 C         -45.003025     -127.632607      -41.659264
 H         -46.967884     -129.722336      -39.715832
 H         -45.890892     -128.542679      -38.992603
 H         -48.247055     -126.382217      -41.442078
 H         -46.912666     -125.895164      -40.157536
 H         -45.908871     -129.689194      -41.824295
 H         -44.579067     -129.652176      -40.789307
 H         -45.909836     -125.733360      -42.521160
 H         -46.598083     -127.313141      -42.983070
 H         -44.300877     -127.815186      -42.529873
 H         -44.485332     -127.058517      -40.917770
