20
 generated by VMD
 C         -65.596077     -177.660202      -56.707069
 N         -66.131958     -176.664261      -56.436192
 H         -65.031212     -175.461121      -59.627228
 H         -65.122337     -178.568420      -56.982582
 C         -64.573151     -174.404480      -59.467461
 C         -65.410347     -173.474380      -58.673225
 C         -63.497223     -173.996658      -60.367592
 C         -65.000069     -171.890503      -58.915375
 C         -63.169701     -172.564896      -60.292564
 C         -64.378044     -171.643951      -60.252209
 H         -65.063683     -173.587051      -57.621651
 H         -66.480927     -173.581833      -58.734451
 H         -62.657333     -174.661270      -60.106007
 H         -63.711948     -174.313492      -61.451218
 H         -64.332619     -171.643478      -58.093376
 H         -65.930061     -171.299973      -58.745983
 H         -62.723202     -172.313309      -61.215527
 H         -62.475311     -172.295776      -59.428406
 H         -64.003067     -170.610428      -60.303555
 H         -64.997826     -171.900482      -61.132774
