20
 generated by VMD
 C         -58.787701     -168.509659      -54.952003
 N         -57.596889     -168.703308      -54.943909
 H         -62.057926     -168.399979      -55.574883
 H         -59.867016     -168.298553      -55.023712
 C         -62.440353     -167.689697      -56.251560
 C         -62.656246     -167.962631      -57.756687
 C         -62.819092     -166.405609      -55.605640
 C         -64.152573     -167.596115      -58.087769
 C         -64.311745     -166.175293      -56.005474
 C         -64.542381     -166.205353      -57.505714
 H         -62.525074     -168.901993      -57.995502
 H         -61.947544     -167.388931      -58.483269
 H         -62.724281     -166.382172      -54.458195
 H         -62.095177     -165.669434      -56.113255
 H         -64.858574     -168.310654      -57.688030
 H         -64.444710     -167.608261      -59.129025
 H         -64.716408     -165.300476      -55.622543
 H         -64.777756     -166.911972      -55.515720
 H         -65.619034     -165.900284      -57.748909
 H         -63.934731     -165.497040      -58.106998
