20
 generated by VMD
 C         -78.957657     -208.077225      -76.157104
 N         -78.375648     -207.698410      -75.245186
 H         -79.192574     -209.998444      -73.389145
 H         -79.345421     -208.309799      -77.081024
 C         -78.714165     -210.135223      -72.436478
 C         -77.454865     -209.288788      -72.440025
 C         -78.883659     -211.371460      -71.532898
 C         -77.053177     -208.961746      -71.038368
 C         -78.651894     -210.801315      -70.047890
 C         -77.193817     -210.188782      -70.030159
 H         -77.703011     -208.281982      -72.865471
 H         -76.652397     -209.840714      -73.021774
 H         -79.928711     -211.642914      -71.450523
 H         -78.287605     -212.273834      -71.900398
 H         -77.769646     -208.184738      -70.619835
 H         -76.020073     -208.577988      -71.031570
 H         -78.968521     -211.653427      -69.372314
 H         -79.299980     -209.998306      -69.800835
 H         -77.080437     -209.966202      -68.952888
 H         -76.386772     -210.941818      -70.307602
