20
 generated by VMD
 C         -70.291298     -182.689102      -65.398018
 N         -70.853111     -183.709473      -65.580757
 H         -68.312149     -181.455261      -62.746964
 H         -69.791267     -181.734299      -65.183960
 C         -67.597488     -181.571213      -61.974800
 C         -67.632919     -182.841568      -61.199924
 C         -66.941658     -180.310593      -61.482578
 C         -66.534256     -182.966385      -60.151894
 C         -65.763763     -180.445450      -60.471851
 C         -66.342026     -181.515594      -59.421627
 H         -67.746918     -183.703751      -61.793705
 H         -68.603500     -182.807098      -60.728832
 H         -66.742699     -179.702347      -62.322262
 H         -67.808647     -179.831863      -60.906513
 H         -65.590309     -183.206238      -60.672558
 H         -66.684502     -183.652649      -59.206306
 H         -65.504028     -179.533752      -59.922630
 H         -64.858017     -180.823639      -61.005627
 H         -65.607338     -181.598251      -58.602917
 H         -67.416878     -181.150192      -59.025246
