20
 generated by VMD
 C         -74.536049     -200.951675      -66.127785
 N         -73.369537     -200.914886      -66.218826
 H         -76.469734     -198.679779      -68.745735
 H         -75.565125     -200.907043      -65.968964
 C         -75.432617     -198.360229      -68.761375
 C         -75.009407     -197.113937      -67.921906
 C         -74.501686     -198.984833      -69.665085
 C         -73.501648     -196.747330      -68.139000
 C         -73.221550     -198.201202      -70.005028
 C         -72.555298     -197.818283      -68.652573
 H         -75.062370     -197.225601      -66.834465
 H         -75.602798     -196.283432      -68.256958
 H         -74.155060     -199.897186      -69.196091
 H         -75.045189     -199.245804      -70.603287
 H         -73.032249     -196.246750      -67.257057
 H         -73.494713     -195.888657      -68.866615
 H         -73.558479     -197.366714      -70.627052
 H         -72.552734     -198.817902      -70.504860
 H         -72.495934     -198.627701      -67.836929
 H         -71.632141     -197.464844      -68.824425
