20
 generated by VMD
 C         -20.936495      -52.239262       -9.605707
 N         -21.342819      -52.373806      -10.727466
 H         -19.361368      -50.034225      -12.046970
 H         -20.872314      -52.313358       -8.622092
 C         -18.256510      -50.073761      -12.234530
 C         -17.836027      -51.435638      -12.637126
 C         -17.297831      -48.885998      -12.209151
 C         -16.838409      -51.344860      -13.741757
 C         -16.523775      -48.853916      -13.504743
 C         -15.825772      -50.179718      -13.746490
 H         -18.752102      -51.961342      -12.957040
 H         -17.401230      -51.957535      -11.814017
 H         -17.825918      -47.930492      -12.161842
 H         -16.572803      -48.980370      -11.427378
 H         -17.438631      -51.349136      -14.639094
 H         -16.307484      -52.311195      -13.854797
 H         -15.868992      -47.960537      -13.513271
 H         -17.203123      -48.673191      -14.324269
 H         -15.295120      -50.276138      -14.740755
 H         -15.103924      -50.367176      -12.907139
