20
 generated by VMD
 C         -39.776573     -101.004852      -31.271078
 N         -40.463917     -100.101364      -31.314838
 H         -37.344223     -103.333649      -31.626602
 H         -39.141441     -101.937889      -31.224918
 C         -36.936760     -102.320656      -31.377003
 C         -36.424541     -101.742798      -32.640739
 C         -36.441994     -102.015892      -30.123356
 C         -35.787830     -100.363617      -32.550976
 C         -36.040508     -100.514359      -30.105286
 C         -35.262447      -99.925835      -31.226311
 H         -37.149567     -101.775032      -33.483788
 H         -35.619701     -102.358742      -33.034756
 H         -37.191780     -102.083191      -29.407757
 H         -35.537373     -102.636230      -29.879438
 H         -36.580574      -99.658531      -32.876770
 H         -35.058933     -100.359528      -33.402145
 H         -35.347988     -100.339073      -29.226816
 H         -36.825775      -99.864143      -29.893114
 H         -35.248238      -98.816376      -31.086567
 H         -34.151489     -100.184708      -31.171190
