20
 generated by VMD
 C         -78.326065     -209.673218      -77.032013
 N         -78.679222     -208.884460      -77.777000
 H         -79.080421     -210.668320      -73.320427
 H         -78.074791     -210.439621      -76.231384
 C         -78.885277     -211.673080      -72.904213
 C         -77.687294     -211.932755      -72.029869
 C         -80.070908     -212.535385      -72.955162
 C         -78.166328     -212.219131      -70.578682
 C         -80.419769     -212.860489      -71.513039
 C         -79.217667     -213.290115      -70.600517
 H         -77.111076     -211.042816      -71.889046
 H         -77.088760     -212.768417      -72.430237
 H         -80.891815     -212.047272      -73.523575
 H         -79.822426     -213.491882      -73.408836
 H         -78.604996     -211.355774      -70.007324
 H         -77.220680     -212.517715      -70.087334
 H         -81.216896     -213.561493      -71.368668
 H         -80.870987     -211.950562      -71.008217
 H         -79.529655     -213.225250      -69.561516
 H         -78.951439     -214.388992      -70.783844
