20
 generated by VMD
 C         -44.705544     -122.382858      -36.035301
 N         -44.364159     -122.216423      -34.971634
 H         -45.222507     -122.885628      -39.482334
 H         -45.203392     -122.618767      -37.009651
 C         -45.019173     -121.789589      -39.561226
 C         -43.521858     -121.353630      -39.564003
 C         -46.049274     -120.760597      -39.500538
 C         -43.253113     -120.016060      -40.352516
 C         -45.712791     -119.477356      -40.333118
 C         -44.286453     -118.992836      -40.091560
 H         -42.972237     -122.195808      -40.037262
 H         -43.127743     -121.300331      -38.585419
 H         -47.048058     -121.139725      -39.867779
 H         -46.036209     -120.645973      -38.422192
 H         -43.204151     -120.062294      -41.524284
 H         -42.355534     -119.553612      -39.860256
 H         -46.526310     -118.760307      -40.139580
 H         -45.860325     -119.938133      -41.348804
 H         -44.181488     -118.371384      -40.952793
 H         -44.102585     -118.388977      -39.202213
