20
 generated by VMD
 C         -47.923626     -134.950989      -46.362446
 N         -47.784637     -134.698288      -47.437607
 H         -51.030899     -134.616089      -45.451534
 H         -47.792789     -134.980026      -45.317867
 C         -50.996094     -135.502792      -44.714947
 C         -51.482624     -136.727417      -45.360783
 C         -51.200745     -135.308945      -43.266968
 C         -51.240456     -137.957458      -44.570866
 C         -50.915356     -136.631668      -42.499146
 C         -51.653751     -137.792221      -43.040665
 H         -51.190582     -136.889618      -46.362198
 H         -52.642384     -136.612762      -45.362167
 H         -50.470924     -134.478928      -43.076653
 H         -52.207474     -134.907562      -42.942631
 H         -50.158604     -138.160828      -44.479496
 H         -51.607674     -138.910446      -44.969799
 H         -51.169750     -136.548782      -41.487560
 H         -49.843266     -136.800171      -42.640362
 H         -51.245560     -138.722839      -42.443928
 H         -52.776009     -137.559540      -43.055855
