20
 generated by VMD
 C         -50.660469     -129.101501      -42.710957
 N         -50.723885     -128.192703      -42.017467
 H         -48.375870     -127.604004      -40.116848
 H         -50.912899     -129.973099      -43.295979
 C         -47.318001     -127.571800      -40.599907
 C         -46.208328     -128.427841      -40.168636
 C         -47.123863     -126.235466      -41.191498
 C         -44.887169     -128.182327      -40.984509
 C         -45.847397     -126.129631      -41.994904
 C         -44.690754     -126.704567      -41.257549
 H         -46.447418     -129.534470      -40.195030
 H         -45.938377     -128.129990      -39.202782
 H         -48.053711     -125.937767      -41.784172
 H         -47.074108     -125.401344      -40.574162
 H         -44.682861     -128.854019      -41.860870
 H         -43.942249     -128.585709      -40.476521
 H         -45.600590     -125.071274      -42.166557
 H         -45.950729     -126.604431      -42.989326
 H         -43.726883     -126.501602      -41.782410
 H         -44.626465     -126.210556      -40.252769
