20
 generated by VMD
 C         -47.932064     -139.817245      -46.098335
 N         -46.816715     -139.485077      -45.854450
 H         -50.962780     -138.664719      -44.968739
 H         -48.985054     -139.970490      -46.224941
 C         -51.846691     -139.157104      -45.397358
 C         -52.011902     -139.375412      -46.811214
 C         -53.181309     -139.051590      -44.657734
 C         -53.063553     -140.494720      -47.129375
 C         -54.220577     -140.004211      -44.990574
 C         -54.420906     -140.138443      -46.569656
 H         -51.107605     -139.764969      -47.174458
 H         -52.149532     -138.374741      -47.269981
 H         -53.056339     -139.168243      -43.559826
 H         -53.512947     -138.011780      -44.987598
 H         -52.817005     -141.489883      -46.924664
 H         -53.186218     -140.462112      -48.222252
 H         -55.315147     -139.789856      -44.688980
 H         -53.967800     -140.936295      -44.459877
 H         -55.237736     -140.976776      -46.760029
 H         -54.758972     -139.121948      -46.849365
