20
 generated by VMD
 C         -38.261402     -113.858589      -35.506618
 N         -38.302452     -115.012840      -35.406246
 H         -41.425842     -114.504852      -36.061249
 H         -38.396988     -112.844894      -35.341938
 C         -42.347549     -114.802139      -36.518360
 C         -42.658768     -114.843208      -37.938862
 C         -43.497845     -114.557716      -35.637020
 C         -43.908409     -115.593513      -38.346306
 C         -44.639149     -115.570023      -35.944088
 C         -45.110916     -115.384720      -37.369839
 H         -41.828918     -115.104805      -38.573845
 H         -42.783035     -113.861603      -38.348400
 H         -43.052643     -114.626907      -34.612915
 H         -43.853859     -113.566574      -35.977413
 H         -43.820660     -116.750175      -38.346500
 H         -44.233944     -115.348061      -39.363628
 H         -45.351288     -115.322510      -35.197994
 H         -44.223167     -116.542160      -35.898701
 H         -45.958611     -115.998199      -37.766327
 H         -45.525921     -114.378075      -37.631996
