20
 generated by VMD
 C         -21.483187      -65.767311      -17.056379
 N         -20.969055      -66.297707      -16.170422
 H         -24.327776      -63.835583      -18.221834
 H         -22.072556      -65.382782      -17.783939
 C         -24.522797      -64.910591      -18.380886
 C         -24.592741      -65.343178      -19.875795
 C         -25.333658      -65.616043      -17.369949
 C         -24.172747      -66.860214      -19.833294
 C         -25.039175      -67.184532      -17.562073
 C         -25.281891      -67.543236      -19.100979
 H         -23.918734      -64.718597      -20.468132
 H         -25.662130      -65.345039      -20.427542
 H         -24.978348      -65.300659      -16.374825
 H         -26.331018      -65.453400      -17.667366
 H         -23.265551      -67.046745      -19.336805
 H         -24.030926      -67.225471      -20.841837
 H         -25.742481      -67.865479      -17.075342
 H         -24.020124      -67.371185      -17.208387
 H         -25.407816      -68.602425      -19.329124
 H         -26.294619      -67.088181      -19.399385
