20
 generated by VMD
 C         -13.214353      -27.884657       -2.689246
 N         -13.981041      -27.244989       -3.191858
 H         -10.474854      -27.638575       -3.446847
 H          -9.660503      -26.660570       -4.671100
 C          -9.491641      -27.422356       -3.862257
 C          -8.894284      -28.780590       -4.299601
 C          -8.604095      -26.840956       -2.738810
 C          -7.502103      -28.489716       -4.928230
 C          -7.221302      -26.588448       -3.305725
 C          -6.648299      -27.875368       -3.807308
 H          -9.544882      -29.234449       -5.161259
 H          -8.925563      -29.517941       -3.535162
 H          -8.945266      -25.817858       -2.475842
 H          -8.490475      -27.440639       -1.842426
 H          -7.618784      -27.872490       -5.821839
 H          -7.076604      -29.422840       -5.370039
 H          -6.599061      -26.207613       -2.498105
 H          -7.153828      -25.797087       -4.042881
 H          -5.680612      -27.575254       -4.269938
 H          -6.435555      -28.632414       -3.054072
