20
 generated by VMD
 C         -61.530891     -155.645203      -53.586067
 N         -61.753250     -155.083572      -54.637115
 H         -58.540951     -154.973511      -51.984276
 H         -61.358727     -156.365417      -52.797230
 C         -57.550667     -155.065796      -51.567310
 C         -57.372890     -154.429596      -50.241840
 C         -56.377995     -155.194550      -52.479813
 C         -56.105663     -154.883347      -49.578957
 C         -55.137344     -155.650253      -51.727386
 C         -54.921612     -154.835449      -50.463745
 H         -58.192284     -154.673691      -49.592377
 H         -57.429897     -153.395767      -50.457584
 H         -56.740643     -155.899200      -53.253052
 H         -56.107662     -154.171936      -52.960533
 H         -56.270367     -155.897415      -49.266663
 H         -55.959709     -154.263519      -48.734467
 H         -54.291405     -155.597046      -52.369057
 H         -55.281490     -156.698486      -51.421631
 H         -54.051983     -155.103897      -49.755859
 H         -54.675793     -153.805817      -50.709980
