20
 generated by VMD
 C         -58.300537     -159.075775      -57.915783
 N         -59.367050     -158.677689      -57.512230
 H         -59.197639     -159.961258      -54.630611
 H         -57.336269     -159.496979      -58.253712
 C         -59.476200     -160.652603      -53.852249
 C         -58.594711     -160.835464      -52.721638
 C         -60.628883     -161.554398      -53.880016
 C         -59.291939     -161.077621      -51.426792
 C         -61.364338     -161.733536      -52.623360
 C         -60.455280     -162.143311      -51.487282
 H         -58.036930     -159.915573      -52.503586
 H         -57.934925     -161.736603      -53.026161
 H         -61.342735     -161.181229      -54.596241
 H         -60.352600     -162.551422      -54.341331
 H         -59.640778     -160.107849      -51.111641
 H         -58.501251     -161.215668      -50.551483
 H         -62.090134     -162.500534      -52.781223
 H         -61.995586     -160.900162      -52.438202
 H         -60.993477     -162.149155      -50.590797
 H         -60.075977     -163.152878      -51.580105
