20
 generated by VMD
 C         -51.466396     -145.745850      -43.993004
 N         -51.392975     -146.427094      -44.880825
 H         -53.539291     -144.926575      -46.555042
 H         -51.625092     -145.175629      -43.098030
 C         -53.740101     -144.429840      -47.531887
 C         -52.722919     -144.400772      -48.684425
 C         -54.829937     -143.434875      -47.426758
 C         -53.492714     -143.966202      -50.007145
 C         -55.457462     -142.967606      -48.743050
 C         -54.346855     -142.633789      -49.808830
 H         -52.300312     -145.430038      -48.750877
 H         -51.858551     -143.611893      -48.536167
 H         -55.687115     -143.826187      -46.833267
 H         -54.438625     -142.725708      -46.769096
 H         -54.142456     -144.728439      -50.329144
 H         -52.837044     -143.792328      -50.813850
 H         -56.105602     -142.127716      -48.557667
 H         -56.206081     -143.691742      -49.181969
 H         -54.739922     -142.320877      -50.815853
 H         -53.680557     -141.796738      -49.401913
