20
 generated by VMD
 C         -69.198708     -181.319366      -61.232014
 N         -69.734116     -180.281830      -61.175182
 H         -66.692162     -179.469666      -59.392586
 H         -68.784256     -182.350037      -61.336720
 C         -66.317497     -178.458359      -59.802994
 C         -65.716064     -178.506531      -61.201706
 C         -65.570084     -177.513733      -58.826687
 C         -65.150032     -177.271683      -61.756248
 C         -64.890869     -176.264938      -59.366665
 C         -64.214813     -176.582489      -60.759190
 H         -66.410202     -179.109726      -61.817249
 H         -64.808411     -179.163696      -60.943386
 H         -66.296417     -177.157135      -58.146744
 H         -64.757149     -178.014664      -58.188023
 H         -66.087852     -176.526291      -62.150612
 H         -64.623856     -177.509995      -62.762192
 H         -64.240570     -175.837326      -58.531837
 H         -65.671043     -175.486115      -59.559124
 H         -63.905869     -175.647614      -61.155693
 H         -63.287247     -177.105865      -60.402412
