20
 generated by VMD
 C         -44.708126     -122.424232      -36.095390
 N         -44.184700     -121.836166      -35.205769
 H         -45.258640     -122.705116      -39.337955
 H         -45.144604     -123.038071      -36.873066
 C         -44.907829     -121.714577      -39.513454
 C         -43.448063     -121.308807      -39.490658
 C         -46.045078     -120.695229      -39.454853
 C         -43.307827     -120.007675      -40.335087
 C         -45.762081     -119.450951      -40.244102
 C         -44.332653     -118.970444      -39.867722
 H         -42.920841     -122.023209      -39.995647
 H         -43.112713     -121.226784      -38.460922
 H         -47.033787     -121.138161      -39.817184
 H         -46.255676     -120.346405      -38.411659
 H         -43.219727     -120.238373      -41.453697
 H         -42.324757     -119.608513      -40.160824
 H         -46.458027     -118.621460      -40.079037
 H         -45.579258     -119.610359      -41.246101
 H         -44.103413     -118.135994      -40.607407
 H         -44.219963     -118.545563      -38.807117
