20
 generated by VMD
 C         -79.462158     -205.460144      -70.914749
 N         -80.565071     -205.705109      -71.174690
 H         -77.215698     -203.047440      -69.753670
 H         -78.441345     -205.206680      -70.715332
 C         -76.206581     -203.240295      -69.990730
 C         -75.353752     -201.993774      -70.222519
 C         -75.509399     -204.414215      -69.609879
 C         -73.812096     -202.206772      -70.411331
 C         -74.089867     -204.146988      -69.016739
 C         -73.154175     -203.494110      -70.033638
 H         -75.481644     -201.370895      -69.313576
 H         -75.860222     -201.452911      -71.008804
 H         -76.109024     -205.051483      -68.963867
 H         -75.523392     -205.040009      -70.512863
 H         -73.193024     -201.405380      -70.011948
 H         -73.685974     -202.268585      -71.482353
 H         -73.610825     -204.985123      -68.617821
 H         -74.251846     -203.409134      -68.125412
 H         -72.057297     -203.207626      -69.814255
 H         -73.030418     -204.123840      -70.937218
