20
 generated by VMD
 C         -38.372906     -112.717278      -35.883038
 N         -37.814823     -112.105286      -36.700329
 H         -40.944939     -114.580467      -35.084206
 H         -38.923317     -113.138336      -35.092525
 C         -41.900410     -114.351044      -35.475620
 C         -41.918777     -114.581154      -36.914318
 C         -42.986450     -113.670105      -34.681122
 C         -43.396088     -114.740837      -37.399185
 C         -44.310509     -113.928665      -35.255371
 C         -44.424683     -113.801880      -36.813702
 H         -41.388287     -115.441383      -37.318653
 H         -41.528282     -113.797005      -37.568935
 H         -43.021446     -114.137520      -33.675198
 H         -42.586575     -112.633171      -34.588779
 H         -43.694962     -115.844498      -37.324730
 H         -43.421341     -114.572746      -38.487118
 H         -44.883778     -113.231590      -34.762844
 H         -44.533352     -114.921143      -34.958424
 H         -45.433971     -114.182167      -37.086445
 H         -44.412506     -112.906197      -37.326271
