20
 generated by VMD
 C         -51.073174     -130.842453      -46.139591
 N         -50.398827     -130.133499      -46.778744
 H         -48.035503     -132.067673      -44.452824
 H         -51.562969     -131.453339      -45.338749
 C         -48.123287     -132.319626      -43.427292
 C         -48.543957     -133.701370      -42.972069
 C         -48.121872     -131.207565      -42.474968
 C         -48.202007     -134.021271      -41.494503
 C         -47.837521     -131.541992      -41.006210
 C         -48.618046     -132.832672      -40.601624
 H         -48.047009     -134.473679      -43.508789
 H         -49.641521     -133.948990      -43.160442
 H         -47.369469     -130.531403      -42.940147
 H         -49.104324     -130.789200      -42.807297
 H         -47.125561     -134.171539      -41.288284
 H         -48.769398     -134.879913      -41.108646
 H         -48.239525     -130.609711      -40.461712
 H         -46.775509     -131.718445      -40.767403
 H         -48.451488     -132.965012      -39.489990
 H         -49.678818     -132.533386      -40.516342
