20
 generated by VMD
 C         -50.672855     -128.840927      -42.337566
 N         -51.488960     -128.212799      -41.834396
 H         -48.051537     -128.000610      -40.918198
 H         -49.721737     -129.192200      -42.683319
 C         -47.130287     -127.533989      -40.693958
 C         -45.898441     -128.196121      -40.157860
 C         -46.983414     -126.127182      -41.223904
 C         -44.584743     -127.855835      -40.870979
 C         -45.682072     -125.821129      -41.958733
 C         -44.423492     -126.260902      -41.188591
 H         -46.004486     -129.299316      -40.172016
 H         -45.821766     -128.008347      -39.061882
 H         -47.929337     -125.994713      -41.909904
 H         -47.042862     -125.456192      -40.423046
 H         -44.661221     -128.274429      -41.911446
 H         -43.708031     -128.183243      -40.202156
 H         -45.609703     -124.721420      -42.030819
 H         -45.670357     -126.305557      -42.960159
 H         -43.487064     -126.101257      -41.692234
 H         -44.418602     -125.805779      -40.172726
