20
 generated by VMD
 C         -43.818531     -121.366707      -36.155552
 N         -43.669552     -120.545181      -35.392208
 H         -44.894497     -122.543198      -39.204918
 H         -43.710911     -122.048805      -36.999287
 C         -44.691750     -121.413811      -39.339085
 C         -43.339672     -120.832741      -39.767323
 C         -45.833645     -120.487709      -38.827347
 C         -43.434597     -119.395660      -40.182995
 C         -45.723579     -119.095825      -39.467026
 C         -44.371830     -118.510956      -39.307255
 H         -42.916904     -121.484535      -40.551682
 H         -42.567390     -120.931030      -39.066177
 H         -46.877628     -120.697655      -39.079311
 H         -45.825344     -120.440804      -37.766659
 H         -43.664780     -119.242401      -41.292122
 H         -42.339596     -119.007614      -40.151649
 H         -46.449417     -118.396072      -38.911179
 H         -46.035294     -118.992180      -40.592079
 H         -44.264286     -117.455826      -39.677792
 H         -44.243843     -118.543556      -38.213367
