20
 generated by VMD
 C         -46.722218     -124.719894      -37.517616
 N         -46.912594     -124.625885      -36.392231
 H         -44.603748     -122.080307      -37.805958
 H         -46.582752     -124.655106      -38.626400
 C         -44.724152     -122.110031      -38.837322
 C         -43.472004     -122.229126      -39.613026
 C         -45.921917     -121.429062      -39.405830
 C         -43.653290     -122.391525      -41.147026
 C         -46.077576     -121.665474      -40.912495
 C         -44.703209     -121.498711      -41.699238
 H         -43.066601     -123.191780      -39.139248
 H         -42.807968     -121.370193      -39.461826
 H         -46.853397     -121.704987      -38.861794
 H         -45.796440     -120.360886      -39.279171
 H         -43.802120     -123.461510      -41.399586
 H         -42.781090     -122.346008      -41.705494
 H         -46.768452     -121.020401      -41.462467
 H         -46.388569     -122.796242      -41.128716
 H         -44.779564     -121.697586      -42.761524
 H         -44.415806     -120.423607      -41.678951
