20
 generated by VMD
 C         -40.980659     -100.832657      -32.859467
 N         -41.739189     -101.284050      -32.115635
 H         -38.424530     -103.071053      -32.347805
 H         -40.145222     -100.403053      -33.380207
 C         -37.411816     -102.915031      -31.976748
 C         -36.283321     -102.670998      -32.925941
 C         -37.151134     -102.818390      -30.549175
 C         -35.228580     -101.737877      -32.429298
 C         -36.339310     -101.658783      -30.032398
 C         -34.994999     -101.791779      -30.728960
 H         -36.511753     -102.317581      -33.963814
 H         -35.768841     -103.613373      -33.117062
 H         -38.094501     -102.846909      -30.148228
 H         -36.643738     -103.772392      -30.232149
 H         -35.408611     -100.660538      -32.618511
 H         -34.203411     -102.053902      -32.902431
 H         -36.073097     -101.527458      -28.896824
 H         -36.794956     -100.727867      -30.320450
 H         -34.391399     -100.941338      -30.356827
 H         -34.476898     -102.747353      -30.510876
