20
 generated by VMD
 C         -69.788651     -184.862549      -66.598404
 N         -69.009171     -184.558655      -67.382614
 H         -69.798721     -183.095825      -63.117458
 H         -70.467415     -185.234451      -65.877762
 C         -69.197220     -183.486420      -62.284779
 C         -69.520393     -184.464828      -61.222385
 C         -68.093796     -182.457794      -61.914631
 C         -68.266373     -185.214951      -60.822887
 C         -66.847397     -182.971039      -61.271667
 C         -67.294807     -184.115891      -60.281155
 H         -70.290901     -184.987137      -61.702034
 H         -70.023628     -184.052658      -60.324322
 H         -67.935349     -181.809799      -62.882168
 H         -68.461853     -181.729477      -61.177059
 H         -67.771713     -185.563736      -61.708454
 H         -68.540253     -186.115173      -60.312817
 H         -66.226547     -182.156769      -60.891739
 H         -66.113617     -183.524551      -61.860500
 H         -66.291328     -184.739105      -60.099819
 H         -67.620216     -183.619598      -59.318207
