20
 generated by VMD
 C         -21.365450      -56.127930      -17.492128
 N         -20.756556      -55.280842      -17.906424
 H         -23.140205      -58.660980      -15.582334
 H         -21.966835      -56.695740      -16.753492
 C         -22.418753      -59.332047      -15.194520
 C         -21.771055      -59.002296      -13.845770
 C         -21.744461      -60.076595      -16.223085
 C         -20.886946      -60.051983      -13.262272
 C         -20.354425      -60.557667      -15.654858
 C         -20.533710      -61.137558      -14.297540
 H         -22.624781      -58.776485      -13.193099
 H         -21.185198      -58.092506      -13.787478
 H         -22.294823      -60.955688      -16.566040
 H         -21.475286      -59.375519      -17.009485
 H         -21.482601      -60.568214      -12.466488
 H         -20.000141      -59.757748      -12.686894
 H         -19.524033      -59.883606      -15.723142
 H         -20.145412      -61.397694      -16.294338
 H         -21.307682      -61.905579      -14.270566
 H         -19.659838      -61.636841      -13.885535
