20
 generated by VMD
 C         -79.304428     -205.923477      -74.477844
 N         -79.305649     -206.718628      -73.615738
 H         -78.697266     -206.223572      -70.695274
 H         -79.465302     -205.308060      -75.421989
 C         -77.647141     -206.386597      -70.398140
 C         -76.688721     -205.641434      -71.382851
 C         -77.278778     -207.789749      -69.846046
 C         -75.405869     -205.592606      -70.601227
 C         -75.894745     -207.597015      -69.257477
 C         -74.837547     -206.927841      -70.121407
 H         -77.225937     -204.700562      -71.786987
 H         -76.453423     -206.284988      -72.264961
 H         -77.994286     -208.179581      -69.170143
 H         -77.371620     -208.405334      -70.738586
 H         -75.397156     -204.823181      -69.793701
 H         -74.711449     -205.209198      -71.377220
 H         -75.403816     -208.588943      -69.081535
 H         -75.933212     -207.088913      -68.256310
 H         -73.921638     -206.558731      -69.545792
 H         -74.529243     -207.546646      -70.948242
