20
 generated by VMD
 C         -41.716496     -102.277275      -34.065113
 N         -40.858078     -101.830696      -34.729294
 H         -39.519299     -103.923050      -32.502140
 H         -42.541416     -102.673271      -33.384972
 C         -38.429039     -104.032303      -32.147358
 C         -37.358479     -103.617134      -32.978218
 C         -38.088768     -104.892006      -31.021116
 C         -35.932957     -103.374779      -32.331882
 C         -36.918842     -104.355942      -30.211685
 C         -35.626789     -104.266426      -31.136488
 H         -37.787792     -102.721146      -33.497013
 H         -37.148445     -104.383537      -33.711384
 H         -38.930817     -105.023003      -30.283823
 H         -37.867516     -105.816505      -31.495134
 H         -36.157146     -102.294914      -32.049530
 H         -35.055149     -103.334534      -33.038918
 H         -36.739773     -105.031616      -29.458620
 H         -37.110355     -103.335434      -29.750847
 H         -34.802025     -103.826233      -30.602867
 H         -35.184517     -105.280052      -31.526838
