20
 generated by VMD
 C         -29.535282      -74.055138      -20.475494
 N         -30.115814      -75.029129      -20.235413
 H         -26.471941      -74.184746      -18.920349
 H         -28.962061      -73.060539      -20.444096
 C         -26.310505      -74.054306      -20.005964
 C         -25.951262      -75.258301      -20.860567
 C         -25.979086      -72.666191      -20.381325
 C         -25.992319      -75.010567      -22.421909
 C         -26.073648      -72.396439      -21.877930
 C         -25.485666      -73.582642      -22.685345
 H         -26.689575      -76.109612      -20.607908
 H         -24.865015      -75.503883      -20.564135
 H         -26.652071      -71.879349      -19.854986
 H         -24.878784      -72.604813      -20.023848
 H         -26.959076      -75.040329      -22.861509
 H         -25.408075      -75.808418      -22.913288
 H         -25.494938      -71.486633      -22.318766
 H         -27.079073      -72.251450      -22.217285
 H         -25.520306      -73.427811      -23.803185
 H         -24.514280      -73.573555      -22.232433
