20
 generated by VMD
 C         -56.557388     -150.134659      -47.646400
 N         -57.640038     -150.358688      -47.883759
 H         -53.650986     -148.676529      -47.489758
 H         -55.514427     -149.871796      -47.445499
 C         -53.695148     -148.020142      -48.381210
 C         -53.027115     -148.434372      -49.608482
 C         -54.441616     -146.711823      -48.638042
 C         -54.156437     -148.753616      -50.654305
 C         -55.597427     -146.859039      -49.658733
 C         -54.957596     -147.430466      -50.962605
 H         -52.404255     -149.215164      -49.379669
 H         -52.390491     -147.767395      -50.227818
 H         -54.742695     -146.172897      -47.738659
 H         -53.650806     -146.194458      -49.127605
 H         -54.918194     -149.434067      -50.288322
 H         -53.817146     -149.282745      -51.564190
 H         -56.094208     -145.792770      -49.715630
 H         -56.298111     -147.596268      -49.331043
 H         -55.765480     -147.657654      -51.700821
 H         -54.334759     -146.707504      -51.493271
