20
 generated by VMD
 C         -12.809395      -28.018621       -4.128401
 N         -13.830526      -27.678692       -4.383382
 H         -10.507154      -29.417212       -2.524801
 H         -10.732633      -28.049995       -3.576307
 C          -9.884620      -28.772491       -3.199858
 C          -9.430429      -29.609766       -4.393386
 C          -8.716469      -28.168991       -2.378835
 C          -8.343298      -28.891336       -5.247887
 C          -7.596322      -27.484390       -3.241028
 C          -7.104939      -28.473234       -4.354051
 H         -10.281811      -29.748663       -5.121280
 H          -9.132849      -30.538500       -4.024287
 H          -9.137387      -27.404209       -1.649658
 H          -8.370943      -28.971987       -1.658824
 H          -8.791646      -28.030270       -5.666631
 H          -8.015999      -29.588665       -6.007265
 H          -6.711447      -27.260689       -2.588045
 H          -7.890934      -26.554226       -3.696544
 H          -6.386482      -27.887318       -4.961916
 H          -6.591938      -29.353048       -3.863573
