20
 generated by VMD
 C         -66.990685     -191.394760      -66.218323
 N         -67.482697     -190.808655      -67.082146
 H         -70.342941     -190.219589      -66.537964
 H         -66.665794     -192.148483      -65.447853
 C         -71.097137     -190.188187      -65.706436
 C         -72.093208     -191.297104      -65.547684
 C         -70.887047     -189.171249      -64.531364
 C         -73.357887     -190.758560      -64.802940
 C         -71.961678     -188.965714      -63.495228
 C         -72.972000     -190.179840      -63.418602
 H         -71.580917     -192.102890      -65.071732
 H         -72.376839     -191.685303      -66.547119
 H         -69.991943     -189.502731      -64.092339
 H         -70.784767     -188.252991      -65.095192
 H         -73.980675     -191.633484      -64.586449
 H         -73.825089     -189.927353      -65.395699
 H         -72.543602     -188.053528      -63.747898
 H         -71.529091     -188.866547      -62.506439
 H         -72.456245     -190.999451      -62.879280
 H         -73.923485     -189.940536      -62.781742
