20
 generated by VMD
 C         -25.729485      -71.243385      -16.896776
 N         -26.080917      -72.127541      -16.251823
 H         -23.888720      -68.735924      -18.887310
 H         -25.222822      -70.534561      -17.504930
 C         -24.557167      -69.270111      -19.561047
 C         -23.995144      -70.379784      -20.476646
 C         -25.860233      -68.598045      -20.135233
 C         -25.022408      -71.254852      -21.271955
 C         -26.764441      -69.551422      -20.992340
 C         -26.045959      -70.259865      -22.095573
 H         -23.462057      -70.849487      -19.646708
 H         -23.377861      -69.808434      -21.094797
 H         -26.477802      -68.082405      -19.333961
 H         -25.562037      -67.841232      -20.878742
 H         -25.648497      -71.899681      -20.651190
 H         -24.635126      -71.973991      -22.037436
 H         -27.439228      -68.815460      -21.521687
 H         -27.360590      -70.104248      -20.265200
 H         -26.765223      -70.806923      -22.728888
 H         -25.493238      -69.483231      -22.591122
