20
 generated by VMD
 C         -40.536194     -117.070076      -34.530052
 N         -39.494904     -116.658485      -34.731991
 H         -41.774960     -117.135574      -37.748848
 H         -41.413002     -117.699051      -34.248363
 C         -42.514050     -116.357925      -37.802933
 C         -43.078979     -116.137680      -39.224255
 C         -43.507282     -116.078415      -36.688889
 C         -44.371281     -116.964661      -39.382908
 C         -44.791668     -116.925743      -36.958618
 C         -45.463058     -116.666321      -38.336735
 H         -42.308422     -116.395332      -40.018124
 H         -43.293354     -115.060448      -39.369129
 H         -42.957451     -116.362778      -35.714672
 H         -43.810574     -115.021927      -36.761528
 H         -44.091068     -117.996445      -39.378067
 H         -44.707516     -116.817162      -40.420715
 H         -45.543877     -116.532402      -36.187904
 H         -44.723770     -118.099190      -37.048317
 H         -46.479630     -117.267677      -38.441616
 H         -45.854156     -115.505997      -38.419899
