20
 generated by VMD
 C         -67.021210     -189.805603      -67.022751
 N         -67.205063     -190.138306      -65.940033
 H         -70.509483     -190.612259      -66.320839
 H         -66.870674     -189.731064      -68.072441
 C         -71.076286     -190.374908      -65.480103
 C         -72.257790     -191.076096      -64.887840
 C         -70.412659     -189.338226      -64.691124
 C         -73.320419     -190.212677      -64.113716
 C         -71.396149     -188.396210      -63.884048
 C         -72.584419     -189.283356      -63.174305
 H         -71.978996     -191.844650      -64.136703
 H         -72.612015     -191.793365      -65.559814
 H         -69.722061     -189.802505      -63.969143
 H         -69.734329     -188.739365      -65.278091
 H         -74.059258     -190.862518      -63.595661
 H         -74.029129     -189.615067      -64.782707
 H         -71.854515     -187.695358      -64.632065
 H         -70.904106     -187.812897      -63.120090
 H         -72.196793     -189.957260      -62.369186
 H         -73.242126     -188.567551      -62.778400
