20
 generated by VMD
 C         -79.762489     -205.391678      -71.214455
 N         -80.214569     -206.417175      -71.464287
 H         -77.296768     -203.027893      -70.503830
 H         -79.419228     -204.392181      -70.855148
 C         -76.271301     -203.321167      -70.341522
 C         -75.220749     -202.311630      -70.330544
 C         -75.943474     -204.742386      -70.088463
 C         -73.811104     -202.992752      -70.611740
 C         -74.702339     -204.952759      -69.199265
 C         -73.488815     -203.951721      -69.467186
 H         -75.196991     -201.796799      -69.327248
 H         -75.538673     -201.545776      -71.013824
 H         -76.814674     -205.283295      -69.574097
 H         -75.850182     -205.222839      -71.147537
 H         -72.928482     -202.309967      -70.820900
 H         -73.978561     -203.690598      -71.465073
 H         -74.290894     -205.920258      -69.305969
 H         -75.039101     -204.866531      -68.131432
 H         -73.082680     -203.327255      -68.646774
 H         -72.677658     -204.624542      -69.864342
