20
 generated by VMD
 C         -39.579086     -100.418404      -30.852339
 N         -40.485329     -100.167206      -31.490896
 H         -37.508945     -102.573151      -30.722643
 H         -38.735867     -100.893913      -30.303598
 C         -36.683891     -101.860985      -30.998390
 C         -36.718159     -101.231789      -32.388496
 C         -35.416122     -101.478104      -29.972319
 C         -36.510052      -99.631691      -32.096546
 C         -35.172104     -100.020325      -29.968515
 C         -35.139835      -99.454971      -31.456558
 H         -37.661034     -101.400261      -32.899887
 H         -35.935501     -101.786774      -32.989532
 H         -35.637161     -101.969223      -29.009388
 H         -34.593563     -102.068619      -30.396961
 H         -37.315804      -99.160728      -31.504507
 H         -36.368809      -99.001297      -33.071438
 H         -34.146542      -99.857407      -29.471470
 H         -35.880405      -99.546303      -29.350266
 H         -34.830341      -98.438477      -31.565308
 H         -34.343632     -100.030853      -31.970610
