20
 generated by VMD
 C         -38.964397      -98.828911      -27.809219
 N         -38.501465      -99.876518      -27.557215
 H         -37.338696      -98.448448      -30.599033
 H         -39.170696      -97.835838      -28.128006
 C         -36.427757      -97.810051      -30.871950
 C         -35.576954      -98.297050      -32.033989
 C         -35.680557      -97.293045      -29.593172
 C         -34.481056      -97.260384      -32.289055
 C         -34.387737      -96.466293      -29.959448
 C         -33.640541      -97.166946      -30.960812
 H         -36.281780      -98.431145      -32.838264
 H         -35.117962      -99.295105      -31.809637
 H         -36.360989      -96.771378      -28.934605
 H         -35.301529      -98.201408      -28.975481
 H         -34.766750      -96.234528      -32.658092
 H         -33.875862      -97.736443      -33.004425
 H         -33.761379      -96.319008      -29.050577
 H         -34.628010      -95.390945      -30.348263
 H         -32.594921      -96.784317      -31.326666
 H         -33.484253      -98.105972      -30.519760
