20
 generated by VMD
 C         -57.063293     -163.792679      -56.721256
 N         -57.247173     -162.768982      -57.286201
 H         -60.104813     -163.712769      -54.362732
 H         -56.791130     -164.728882      -56.192169
 C         -60.843018     -164.572998      -54.559196
 C         -61.673588     -165.295532      -53.550312
 C         -61.509182     -164.619049      -55.892307
 C         -62.945419     -164.578186      -53.350227
 C         -62.841709     -163.868851      -55.798744
 C         -63.643253     -164.290100      -54.633274
 H         -61.080574     -165.358078      -52.670708
 H         -61.830040     -166.366211      -53.786274
 H         -60.862236     -164.327530      -56.714706
 H         -61.827255     -165.575058      -56.181992
 H         -62.710361     -163.741470      -52.678009
 H         -63.600430     -165.221176      -52.787415
 H         -63.400017     -163.910385      -56.829132
 H         -62.618958     -162.683441      -55.723518
 H         -64.478218     -163.517120      -54.523209
 H         -64.119858     -165.310394      -54.994423
