20
 generated by VMD
 C         -55.332241     -148.725220      -45.222523
 N         -54.673206     -148.994629      -44.324776
 H         -54.616974     -148.156860      -48.651344
 H         -55.771915     -148.401123      -46.114681
 C         -54.349838     -147.210754      -49.160355
 C         -53.120251     -147.023148      -50.008129
 C         -55.067352     -145.998962      -48.574776
 C         -53.290504     -145.861710      -51.109154
 C         -55.132118     -144.776031      -49.483192
 C         -53.872005     -144.574966      -50.355747
 H         -53.015720     -148.035614      -50.514164
 H         -52.189548     -146.852249      -49.500385
 H         -56.132740     -146.106552      -48.112461
 H         -54.449112     -145.648911      -47.725994
 H         -54.102802     -146.116257      -51.769173
 H         -52.394291     -145.507889      -51.667309
 H         -55.551788     -143.947739      -49.001835
 H         -55.986652     -145.169418      -50.186268
 H         -54.020660     -143.821198      -51.110256
 H         -53.116432     -144.148285      -49.670456
