20
 generated by VMD
 C         -33.617611      -96.278442      -25.555897
 N         -34.361217      -96.635094      -26.361357
 H         -35.007553      -93.847412      -27.397600
 H         -32.917801      -96.102638      -24.851959
 C         -34.883163      -94.157936      -28.451244
 C         -35.951939      -94.690659      -29.283596
 C         -33.562729      -93.800735      -28.981562
 C         -36.173729      -93.772217      -30.525501
 C         -33.657990      -92.912453      -30.223236
 C         -34.878624      -93.434837      -31.231161
 H         -36.814209      -94.849693      -28.644543
 H         -35.670055      -95.748795      -29.682755
 H         -33.012383      -93.147827      -28.288002
 H         -32.885525      -94.719109      -29.038712
 H         -36.679985      -92.815048      -30.356199
 H         -36.732857      -94.346642      -31.305197
 H         -32.814278      -92.958466      -30.818960
 H         -33.712051      -91.819305      -29.871571
 H         -34.995834      -92.705772      -32.029125
 H         -34.232014      -94.373970      -31.660669
