20
 generated by VMD
 C         -66.924477     -189.659378      -66.519165
 N         -66.234299     -189.481873      -67.422791
 H         -70.482841     -190.538635      -65.661049
 H         -67.623680     -189.676910      -65.695061
 C         -70.822289     -190.097137      -64.787003
 C         -71.917152     -190.771286      -64.135780
 C         -70.422112     -188.857162      -64.167007
 C         -73.216362     -189.904053      -64.094643
 C         -71.633247     -187.926407      -63.764599
 C         -72.795654     -188.777100      -63.145229
 H         -71.582191     -191.195343      -63.130241
 H         -72.240166     -191.661133      -64.796463
 H         -69.882683     -188.992691      -63.268887
 H         -69.990799     -188.207993      -65.012436
 H         -74.062645     -190.487244      -63.758690
 H         -73.421417     -189.508194      -65.112312
 H         -71.990967     -187.332108      -64.631065
 H         -71.258781     -187.251740      -62.944126
 H         -72.533676     -189.239838      -62.189613
 H         -73.627388     -188.063873      -62.759869
