20
 generated by VMD
 C         -58.373306     -159.096756      -57.737156
 N         -59.343422     -158.425476      -57.756081
 H         -59.536827     -159.649338      -54.248699
 H         -57.513634     -159.777878      -57.710178
 C         -59.481060     -160.618073      -53.751755
 C         -58.512897     -160.740585      -52.706593
 C         -60.657600     -161.409164      -53.893089
 C         -59.282135     -160.928268      -51.380234
 C         -61.283413     -161.769760      -52.535698
 C         -60.243706     -162.036331      -51.416191
 H         -57.850479     -159.867126      -52.595531
 H         -57.905426     -161.710236      -52.916416
 H         -61.390312     -160.915604      -54.422371
 H         -60.358704     -162.162537      -54.617184
 H         -59.730209     -160.027252      -51.072952
 H         -58.593670     -161.059677      -50.454613
 H         -61.889210     -162.651932      -52.676426
 H         -62.005657     -161.042023      -52.210075
 H         -60.807091     -162.157562      -50.496876
 H         -59.789146     -163.035904      -51.628460
