20
 generated by VMD
 C         -73.963028     -201.066208      -65.423203
 N         -72.798363     -201.093536      -65.387581
 H         -74.080177     -197.837921      -66.450325
 H         -75.067001     -200.882553      -65.313629
 C         -74.144341     -197.543076      -67.489822
 C         -74.577621     -196.139740      -67.638397
 C         -73.566994     -198.233688      -68.710411
 C         -73.496399     -195.372177      -68.413750
 C         -73.730644     -197.427505      -69.963585
 C         -73.354652     -195.942444      -69.949669
 H         -74.693077     -195.681396      -66.718987
 H         -75.574272     -195.924942      -68.226593
 H         -72.522301     -198.185959      -68.478592
 H         -74.001976     -199.208160      -68.892082
 H         -72.544792     -195.546219      -67.941292
 H         -73.683136     -194.278519      -68.491455
 H         -74.843262     -197.530563      -70.183830
 H         -73.313820     -197.998001      -70.874992
 H         -72.318275     -195.787735      -70.349617
 H         -74.086960     -195.410248      -70.439217
