20
 generated by VMD
 C         -11.151177      -34.610027       -9.064340
 N         -10.717540      -35.360783       -8.344706
 H         -12.279190      -37.043041       -7.567630
 H         -13.289476      -36.997898       -6.212340
 C         -13.055530      -37.656876       -7.086840
 C         -12.591265      -39.037457       -6.706046
 C         -14.208873      -37.625870       -8.007190
 C         -13.769791      -39.908398       -6.241472
 C         -15.329823      -38.519279       -7.526348
 C         -14.873148      -39.927414       -7.214333
 H         -11.873380      -39.000607       -5.881560
 H         -11.994914      -39.545307       -7.478478
 H         -14.572886      -36.569401       -8.042890
 H         -13.973644      -37.810829       -9.123102
 H         -14.125212      -39.629475       -5.242420
 H         -13.345970      -40.978077       -6.039969
 H         -16.079779      -38.583759       -8.290324
 H         -15.824411      -38.038319       -6.608449
 H         -15.681179      -40.526085       -6.811822
 H         -14.550900      -40.386028       -8.193889
