20
 generated by VMD
 C         -22.502048      -55.531456      -16.356871
 N         -23.196934      -54.632576      -16.176533
 H         -19.824070      -55.799236      -15.920211
 H         -21.691133      -56.263657      -16.661983
 C         -19.784109      -56.524334      -15.164302
 C         -20.532558      -56.438412      -13.755369
 C         -18.498173      -57.466583      -15.098927
 C         -20.980921      -57.891106      -13.367974
 C         -18.928352      -58.924618      -14.713302
 C         -19.711750      -58.886269      -13.401993
 H         -21.432585      -55.896584      -13.772747
 H         -19.890606      -55.950516      -13.046945
 H         -18.099104      -57.416290      -16.100384
 H         -17.724646      -56.966408      -14.477059
 H         -21.717875      -58.176949      -14.089704
 H         -21.452217      -58.058247      -12.377167
 H         -18.134638      -59.657558      -14.705769
 H         -19.724691      -59.184879      -15.471218
 H         -20.040686      -59.888378      -13.105910
 H         -19.057215      -58.556484      -12.526529
