20
 generated by VMD
 C          -2.869172      -17.816826        2.781177
 N          -2.472431      -17.553967        1.767676
 H          -5.270620      -19.061743        1.036510
 H          -5.375431      -20.044930       -0.474174
 C          -5.776499      -19.148600        0.038908
 C          -5.743430      -17.860588       -0.762376
 C          -7.274386      -19.404026        0.338173
 C          -6.520902      -17.889305       -2.080543
 C          -8.100708      -19.422718       -0.949168
 C          -7.919986      -18.210855       -1.860050
 H          -4.783048      -17.535215       -1.039168
 H          -6.239560      -17.029255       -0.197347
 H          -7.442024      -20.404657        0.821898
 H          -7.599975      -18.525227        1.062510
 H          -5.993611      -18.630669       -2.702232
 H          -6.482037      -16.824518       -2.556138
 H          -9.137891      -19.577103       -0.711087
 H          -7.699613      -20.236681       -1.561700
 H          -8.486390      -18.314495       -2.804365
 H          -8.292724      -17.341560       -1.308610
