20
 generated by VMD
 C         -22.556763      -55.526440      -16.459562
 N         -23.292269      -54.636795      -16.028139
 H         -19.268562      -55.444427      -15.312466
 H         -22.043972      -56.389408      -16.594204
 C         -19.538446      -56.396122      -14.972989
 C         -20.504391      -56.462868      -13.947057
 C         -18.511436      -57.488819      -15.164841
 C         -20.806820      -57.769817      -13.303191
 C         -19.023563      -58.791393      -14.692690
 C         -19.762636      -58.848343      -13.395533
 H         -21.431240      -56.028702      -14.139704
 H         -20.074194      -55.809875      -13.224557
 H         -18.143806      -57.366592      -16.151522
 H         -17.656912      -57.213074      -14.510615
 H         -21.732964      -58.125561      -13.723429
 H         -21.060167      -57.603554      -12.209480
 H         -18.161758      -59.346817      -14.369545
 H         -19.555319      -59.357815      -15.531784
 H         -20.135960      -59.864475      -13.279773
 H         -19.103380      -58.740665      -12.470176
