20
 generated by VMD
 C         -31.730043      -78.805695      -26.448969
 N         -31.037086      -78.045227      -26.939083
 H         -29.050209      -80.569801      -25.094326
 H         -32.254013      -79.732704      -26.064898
 C         -28.854572      -81.125771      -24.125734
 C         -27.634575      -81.012589      -23.279799
 C         -29.951332      -82.024216      -23.735624
 C         -27.956095      -81.138321      -21.753401
 C         -30.072273      -82.123825      -22.230923
 C         -28.760710      -82.370003      -21.502131
 H         -27.266201      -79.930687      -23.324207
 H         -26.739889      -81.555557      -23.574257
 H         -30.930283      -81.552841      -24.108545
 H         -29.783535      -82.930008      -24.322115
 H         -28.448347      -80.253937      -21.364649
 H         -26.964964      -81.244438      -21.327394
 H         -30.851068      -82.976913      -22.055288
 H         -30.504745      -81.198845      -21.751822
 H         -29.021511      -82.461617      -20.429482
 H         -28.163139      -83.219971      -21.943439
