20
 generated by VMD
 C         -29.324089      -88.008247      -24.971939
 N         -28.840561      -88.030632      -26.064262
 H         -31.197170      -89.422752      -27.485485
 H         -29.655514      -87.951653      -24.005524
 C         -32.272911      -89.508469      -27.252251
 C         -32.827171      -89.434166      -25.784441
 C         -33.275661      -89.316422      -28.348293
 C         -33.510906      -88.015549      -25.699730
 C         -34.176743      -87.965736      -28.114040
 C         -34.643795      -87.996376      -26.720520
 H         -32.116634      -89.620956      -24.950336
 H         -33.469769      -90.334175      -25.502323
 H         -32.912521      -89.121361      -29.403107
 H         -33.871876      -90.232201      -28.394735
 H         -32.693596      -87.339500      -25.958656
 H         -33.954403      -87.819473      -24.754856
 H         -35.035156      -87.990410      -28.827152
 H         -33.479610      -87.148865      -28.402138
 H         -35.190819      -86.979370      -26.553099
 H         -35.433815      -88.773338      -26.482937
