20
 generated by VMD
 C         -49.997131     -143.784210      -44.372917
 N         -49.273998     -143.645370      -45.313610
 H         -52.147362     -141.697205      -45.618893
 H         -50.666481     -144.071442      -43.588669
 C         -52.811825     -141.750412      -46.463490
 C         -52.232327     -141.747971      -47.816734
 C         -54.216431     -141.327347      -46.227863
 C         -53.141754     -142.369461      -48.926239
 C         -55.207973     -141.848557      -47.287659
 C         -54.529190     -141.750046      -48.761730
 H         -51.230141     -142.116455      -47.889748
 H         -52.085030     -140.621841      -47.974480
 H         -54.596832     -141.504715      -45.209843
 H         -54.350735     -140.246887      -46.233532
 H         -53.057117     -143.347168      -48.768669
 H         -52.886505     -142.158600      -49.930489
 H         -56.112103     -141.306244      -47.191528
 H         -55.383892     -142.903442      -47.263626
 H         -55.182976     -142.253052      -49.414951
 H         -54.432274     -140.748825      -48.964397
