20
 generated by VMD
 C          -1.241994      -12.346310        1.384580
 N          -0.821657      -12.643372        0.386179
 H          -4.075243      -12.883839        1.042848
 H          -5.765074      -13.138679        0.711491
 C          -4.886672      -13.677370        1.126722
 C          -5.136945      -14.017315        2.608164
 C          -4.554456      -14.935609        0.284937
 C          -6.261719      -15.008892        2.749545
 C          -5.620940      -16.066233        0.484189
 C          -6.006810      -16.263634        1.991970
 H          -5.457461      -13.099122        3.041987
 H          -4.183836      -14.269522        3.082014
 H          -4.534623      -14.637497       -0.817451
 H          -3.512525      -15.264215        0.524419
 H          -7.189967      -14.495415        2.459451
 H          -6.428596      -15.165343        3.807177
 H          -5.252350      -16.977118        0.051226
 H          -6.516477      -15.762074       -0.076525
 H          -6.790787      -17.058542        2.068657
 H          -5.061282      -16.734764        2.372269
