20
 generated by VMD
 C         -23.324722      -54.669525      -14.930370
 N         -23.621748      -53.968300      -15.762779
 H         -20.101301      -54.574421      -15.447317
 H         -23.270926      -55.344883      -13.897902
 C         -19.498943      -55.210320      -14.766404
 C         -19.155176      -54.602329      -13.495089
 C         -19.027109      -56.549248      -15.244139
 C         -18.600721      -55.603172      -12.423052
 C         -18.788063      -57.512299      -14.118712
 C         -17.878315      -56.841022      -13.028934
 H         -20.026859      -54.118759      -12.951027
 H         -18.329857      -53.851673      -13.765410
 H         -19.847208      -56.908573      -15.890690
 H         -18.006933      -56.374439      -15.788095
 H         -19.392647      -55.882549      -11.728023
 H         -17.961561      -54.994972      -11.736702
 H         -18.365652      -58.417877      -14.460069
 H         -19.777710      -57.775555      -13.697719
 H         -17.546030      -57.533268      -12.249070
 H         -16.884214      -56.498440      -13.385222
