20
 generated by VMD
 C         -59.299225     -168.332397      -55.375099
 N         -58.470814     -168.886124      -54.802776
 H         -62.340073     -169.401703      -55.956314
 H         -60.052750     -167.956970      -56.056831
 C         -62.600502     -168.418045      -56.385002
 C         -62.780258     -168.387894      -57.840557
 C         -62.879856     -167.161194      -55.564987
 C         -63.997261     -167.613663      -58.350239
 C         -64.134544     -166.439865      -55.975281
 C         -64.084366     -166.252014      -57.612507
 H         -62.796165     -169.383469      -58.157215
 H         -61.741577     -167.924866      -58.298119
 H         -62.849396     -167.478088      -54.493015
 H         -61.956802     -166.602936      -55.784317
 H         -64.932907     -168.175674      -58.463245
 H         -63.715977     -167.468750      -59.406685
 H         -64.301750     -165.378998      -55.654057
 H         -65.072617     -166.902725      -55.693424
 H         -64.995819     -165.698776      -57.809036
 H         -63.390591     -165.542618      -57.959377
