20
 generated by VMD
 C         -68.858032     -188.542297      -66.950539
 N         -68.237228     -189.461273      -66.629799
 H         -68.456223     -187.434296      -63.269966
 H         -69.306046     -187.585480      -67.132584
 C         -69.425980     -187.891617      -63.290119
 C         -69.578491     -189.383514      -63.409168
 C         -70.483727     -186.932831      -63.011795
 C         -70.824684     -189.638977      -64.329208
 C         -71.766617     -187.270096      -63.712666
 C         -72.027733     -188.757858      -63.771252
 H         -69.737938     -189.694092      -62.312683
 H         -68.708046     -190.029297      -63.874447
 H         -70.645752     -186.858246      -61.912117
 H         -70.114662     -185.827652      -63.126858
 H         -71.130119     -190.728348      -64.309807
 H         -70.601685     -189.265259      -65.317390
 H         -71.797348     -186.753036      -64.671890
 H         -72.579857     -186.733963      -63.143696
 H         -72.269699     -188.973816      -62.715591
 H         -73.010857     -188.870499      -64.414009
