20
 generated by VMD
 C         -68.304077     -179.652771      -58.530659
 N         -67.568207     -179.322083      -57.680103
 H         -66.240028     -176.630051      -59.619110
 H         -68.984886     -179.874268      -59.324074
 C         -65.544380     -175.852921      -59.577717
 C         -66.045059     -174.716766      -60.512070
 C         -64.117851     -176.002853      -59.614906
 C         -65.089500     -173.455673      -60.616634
 C         -63.299637     -174.769974      -59.602711
 C         -63.618828     -173.816010      -60.748013
 H         -67.035706     -174.289551      -60.138443
 H         -66.154709     -175.312073      -61.358086
 H         -63.708134     -176.699127      -58.882099
 H         -63.879253     -176.365311      -60.541264
 H         -65.356560     -172.992203      -59.579109
 H         -65.547638     -172.675079      -61.326427
 H         -62.275192     -175.026123      -59.435673
 H         -63.567635     -174.261307      -58.602314
 H         -62.986401     -172.937515      -60.624222
 H         -63.331772     -174.338623      -61.573257
