20
 generated by VMD
 C         -78.168068     -203.736115      -69.288422
 N         -79.125969     -204.290451      -69.752014
 H         -75.412140     -202.161438      -67.211029
 H         -77.213234     -203.210739      -69.090652
 C         -75.060875     -201.834824      -68.279900
 C         -75.084351     -200.455338      -68.758827
 C         -73.891899     -202.655594      -68.939552
 C         -74.762268     -200.238770      -70.186897
 C         -72.830650     -201.787079      -69.727524
 C         -73.686195     -201.143784      -70.845772
 H         -74.375404     -199.859695      -68.076385
 H         -76.042442     -200.022720      -68.617325
 H         -73.324257     -203.125824      -68.134834
 H         -74.303741     -203.574234      -69.483139
 H         -74.441696     -199.201645      -70.271713
 H         -75.722984     -200.415588      -70.753822
 H         -72.073463     -202.430695      -70.185127
 H         -72.322960     -201.173630      -69.020164
 H         -72.970963     -200.597519      -71.531578
 H         -74.070084     -201.986862      -71.355171
