20
 generated by VMD
 C          -2.442277       -8.684705       -0.649412
 N          -1.536543       -8.370771       -0.113129
 H          -2.964952       -9.621943        2.887691
 H          -1.855415      -10.902940        3.450451
 C          -2.927488      -10.663261        3.212950
 C          -3.414364      -11.582897        2.124141
 C          -3.681447      -10.859570        4.520711
 C          -3.341000      -13.052772        2.548386
 C          -3.609256      -12.319662        4.881495
 C          -4.090206      -13.295795        3.809402
 H          -2.749539      -11.397775        1.251847
 H          -4.435241      -11.369184        1.815623
 H          -3.446594      -10.250289        5.460144
 H          -4.753882      -10.610082        4.338390
 H          -2.254262      -13.310024        2.657549
 H          -3.738659      -13.703433        1.727667
 H          -4.276509      -12.513636        5.742720
 H          -2.634921      -12.688672        5.157400
 H          -3.830604      -14.302030        4.167438
 H          -5.171771      -13.350594        3.748830
