20
 generated by VMD
 C         -57.836452     -161.963501      -56.190411
 N         -57.154137     -162.086121      -57.124104
 H         -59.598602     -164.213577      -55.382378
 H         -58.545498     -161.873917      -55.398197
 C         -60.503330     -164.322876      -54.883625
 C         -60.585915     -164.169724      -53.416336
 C         -61.774418     -164.632950      -55.591465
 C         -61.720230     -163.244781      -53.100658
 C         -62.737347     -163.559143      -55.293571
 C         -63.028580     -163.397461      -53.852695
 H         -59.693687     -163.662048      -53.037914
 H         -60.807858     -165.130173      -52.795219
 H         -61.599445     -164.509903      -56.646503
 H         -62.227928     -165.607834      -55.351429
 H         -61.325050     -162.192429      -53.236816
 H         -61.935265     -163.429398      -52.058132
 H         -63.722843     -163.743439      -55.672367
 H         -62.270252     -162.530167      -55.658623
 H         -63.757084     -162.487839      -53.589100
 H         -63.570816     -164.278854      -53.371395
