20
 generated by VMD
 C         -58.405445     -161.909393      -56.389698
 N         -57.271332     -161.816116      -56.601727
 H         -59.573154     -164.768173      -55.239864
 H         -59.444286     -161.975357      -56.131687
 C         -60.374962     -164.211380      -54.860352
 C         -60.327465     -163.933762      -53.387222
 C         -61.619034     -164.349594      -55.632790
 C         -61.279984     -162.777298      -53.217171
 C         -62.764786     -163.494812      -55.115685
 C         -62.731430     -163.217087      -53.581310
 H         -59.307301     -163.611481      -53.118843
 H         -60.517666     -164.859161      -52.755322
 H         -61.626640     -164.215775      -56.766129
 H         -61.853756     -165.366837      -55.419621
 H         -60.941952     -161.961731      -53.836128
 H         -61.215912     -162.536804      -52.135696
 H         -63.742191     -163.741394      -55.517944
 H         -62.754356     -162.533463      -55.588406
 H         -63.262077     -162.309570      -53.361229
 H         -62.957733     -164.040466      -52.946678
