20
 generated by VMD
 C         -29.158684      -88.047943      -25.060282
 N         -28.784307      -87.784409      -26.147736
 H         -31.404995      -90.178474      -27.202461
 H         -29.321020      -88.432251      -24.018440
 C         -32.306908      -89.556427      -27.187607
 C         -32.760632      -89.222328      -25.732347
 C         -33.182808      -89.220245      -28.370983
 C         -33.693989      -88.015579      -25.561979
 C         -34.090462      -87.989777      -28.048031
 C         -34.698620      -87.904091      -26.683254
 H         -31.848442      -88.887291      -25.177185
 H         -33.353966      -90.059372      -25.427193
 H         -32.427383      -89.066803      -29.169142
 H         -33.689793      -90.162682      -28.507500
 H         -33.163223      -87.133736      -25.427053
 H         -34.339874      -87.950439      -24.689360
 H         -34.952732      -87.994209      -28.715902
 H         -33.595554      -86.972450      -28.213158
 H         -35.162235      -86.960777      -26.676998
 H         -35.475918      -88.611633      -26.562597
