20
 generated by VMD
 C         -62.497181     -174.182098      -55.047565
 N         -63.650242     -174.123322      -55.349133
 H         -62.256985     -172.464539      -58.053539
 H         -61.481583     -174.248398      -54.672745
 C         -62.959724     -171.742355      -58.500305
 C         -63.310764     -170.565887      -57.500694
 C         -64.188080     -171.998489      -59.357018
 C         -63.741982     -169.244919      -58.328888
 C         -64.605522     -170.695175      -60.138336
 C         -64.945236     -169.544098      -59.266357
 H         -62.522034     -170.309280      -56.828823
 H         -64.280098     -170.822205      -56.895493
 H         -64.065346     -172.930588      -60.117130
 H         -65.095650     -172.271149      -58.755989
 H         -62.865688     -169.019928      -58.907608
 H         -64.055069     -168.475311      -57.715469
 H         -65.482208     -170.795776      -60.829567
 H         -63.712162     -170.328476      -60.759754
 H         -65.087914     -168.631729      -59.913017
 H         -65.836769     -169.707886      -58.744152
