20
 generated by VMD
 C         -68.497551     -185.349167      -66.825424
 N         -67.746994     -186.216415      -67.019180
 H         -69.606438     -184.314194      -64.338699
 H         -69.223885     -184.546707      -66.732826
 C         -69.597595     -184.933884      -63.387440
 C         -70.791412     -185.152618      -62.488964
 C         -68.309067     -185.561203      -63.138905
 C         -70.411247     -185.414963      -61.039062
 C         -68.175224     -186.333359      -61.817696
 C         -69.487747     -186.623383      -61.120071
 H         -71.276550     -186.093567      -62.910122
 H         -71.444504     -184.242935      -62.678719
 H         -67.843208     -186.297485      -63.823147
 H         -67.541359     -184.717178      -63.126499
 H         -71.380943     -185.616379      -60.550133
 H         -69.851120     -184.537354      -60.574741
 H         -67.628830     -185.636673      -61.132137
 H         -67.426781     -187.181992      -62.014542
 H         -69.931328     -187.570068      -61.411240
 H         -69.109032     -186.907425      -60.154293
