20
 generated by VMD
 C         -76.275414     -202.882294      -66.527534
 N         -77.038223     -203.261093      -65.715019
 H         -75.756973     -200.207001      -68.929070
 H         -75.418411     -202.517136      -67.139946
 C         -74.808769     -199.718994      -68.968124
 C         -74.828697     -198.283554      -68.597015
 C         -73.689629     -200.301865      -69.867836
 C         -73.389069     -197.824692      -68.624634
 C         -73.226318     -199.058624      -70.813568
 C         -72.782806     -197.817291      -70.007416
 H         -75.233788     -198.177689      -67.610168
 H         -75.519836     -197.663498      -69.316795
 H         -72.890213     -200.581116      -69.157936
 H         -73.973846     -201.118042      -70.609589
 H         -72.722420     -198.274185      -67.883873
 H         -73.391121     -196.801163      -68.351524
 H         -74.110046     -198.851028      -71.540916
 H         -72.436752     -199.414368      -71.528450
 H         -71.748802     -197.883301      -70.029739
 H         -73.045471     -196.791687      -70.575981
