20
 generated by VMD
 C         -20.055323      -52.037811      -10.020572
 N         -20.964802      -51.321518       -9.902904
 H         -18.081100      -48.996014      -10.566668
 H         -19.172590      -52.497936      -10.112822
 C         -17.437504      -49.165085      -11.386197
 C         -16.764143      -50.481647      -11.630207
 C         -17.104736      -47.988819      -12.245790
 C         -16.602015      -50.673706      -13.131010
 C         -17.273188      -48.334026      -13.731759
 C         -16.363987      -49.470535      -14.049294
 H         -17.366373      -51.312626      -11.317019
 H         -15.798705      -50.469517      -11.073704
 H         -17.875834      -47.231998      -12.043429
 H         -16.159475      -47.472515      -12.050899
 H         -17.645832      -50.979992      -13.418311
 H         -15.958912      -51.528297      -13.389822
 H         -17.083736      -47.358494      -14.363838
 H         -18.276592      -48.606716      -13.962752
 H         -16.587660      -49.722565      -15.095817
 H         -15.302430      -49.139282      -14.037756
