20
 generated by VMD
 C         -40.927299     -101.058914      -32.868660
 N         -42.005268     -101.445442      -32.591682
 H         -38.537918     -102.839996      -32.462257
 H         -40.058434     -100.551872      -33.107426
 C         -37.553604     -102.774261      -32.034164
 C         -36.322903     -102.860161      -32.954037
 C         -37.395290     -102.764305      -30.556520
 C         -35.332672     -101.812820      -32.355568
 C         -36.178219     -102.111176      -29.942131
 C         -34.865757     -102.182236      -30.817451
 H         -36.577591     -102.609268      -34.045155
 H         -35.983929     -103.905457      -32.828762
 H         -38.312378     -102.350906      -30.333124
 H         -37.412109     -103.832008      -30.189020
 H         -35.640209     -100.782173      -32.311943
 H         -34.488987     -101.784836      -33.111408
 H         -35.779488     -102.389359      -28.889692
 H         -36.505280     -101.094376      -29.932751
 H         -34.195553     -101.415276      -30.427691
 H         -34.227669     -103.031532      -30.913929
