20
 generated by VMD
 C         -13.798383      -28.737295       -6.989144
 N         -13.237283      -28.881086       -7.945211
 H         -11.898785      -30.772095       -4.959418
 H         -10.523111      -29.813375       -4.384592
 C         -10.912633      -30.825525       -4.539458
 C         -10.019722      -31.479500       -5.639597
 C         -10.903056      -31.557653       -3.155096
 C          -8.669837      -31.911020       -5.023415
 C          -9.603806      -32.131424       -2.678633
 C          -8.720667      -32.789745       -3.728910
 H         -10.038199      -30.803938       -6.435019
 H         -10.499749      -32.402996       -6.020014
 H         -11.290121      -30.872831       -2.416640
 H         -11.596273      -32.377724       -3.271666
 H          -8.142578      -31.006453       -4.737577
 H          -8.054745      -32.425182       -5.734889
 H          -9.700162      -32.879623       -1.817098
 H          -9.021228      -31.324415       -2.315761
 H          -7.722004      -33.029148       -3.317408
 H          -9.195745      -33.710758       -4.073180
