20
 generated by VMD
 C         -72.649429     -199.073776      -65.646561
 N         -72.551712     -199.881958      -64.813034
 H         -71.070480     -195.967758      -67.436081
 H         -72.483002     -198.158798      -66.238907
 C         -72.037102     -195.670578      -67.802986
 C         -72.827332     -194.622864      -67.221443
 C         -72.531326     -196.359833      -69.016800
 C         -74.220772     -194.507065      -67.883415
 C         -74.040253     -196.832428      -68.875244
 C         -74.928024     -195.878784      -68.007271
 H         -72.265549     -193.682327      -67.360580
 H         -72.828880     -194.641449      -66.042671
 H         -72.437187     -195.614334      -69.775322
 H         -71.933212     -197.090622      -69.448883
 H         -74.023056     -194.133484      -68.878166
 H         -74.773735     -193.691071      -67.400345
 H         -74.170403     -197.798523      -68.397781
 H         -74.460144     -196.928162      -69.892242
 H         -75.858284     -195.707138      -68.441582
 H         -75.301529     -196.231323      -66.994316
