20
 generated by VMD
 C         -23.381947      -52.982887      -12.756083
 N         -22.977158      -52.596233      -13.809779
 H         -20.495993      -54.862087      -13.582227
 H         -23.872917      -53.503059      -11.672532
 C         -19.426163      -54.654102      -13.921311
 C         -19.045233      -53.237522      -14.011697
 C         -18.335527      -55.580467      -14.079805
 C         -17.632202      -52.816216      -13.438520
 C         -17.266472      -55.341412      -13.040421
 C         -16.631182      -53.944965      -13.321469
 H         -19.861334      -52.634777      -13.673241
 H         -19.025225      -52.979263      -15.069367
 H         -18.769346      -56.600292      -14.001650
 H         -17.891996      -55.556843      -15.032606
 H         -17.854332      -52.418835      -12.456271
 H         -17.196602      -51.955769      -13.985505
 H         -16.527359      -56.201206      -13.129296
 H         -17.634893      -55.345844      -12.049939
 H         -15.863585      -53.686161      -12.502583
 H         -15.993753      -53.916355      -14.255405
