20
 generated by VMD
 C         -56.640610     -150.037201      -47.679699
 N         -57.655323     -150.426682      -48.208752
 H         -53.361599     -148.318146      -47.331490
 H         -55.741520     -149.527863      -47.393791
 C         -53.867214     -148.272903      -48.354439
 C         -53.131382     -148.757401      -49.573822
 C         -54.613102     -146.946533      -48.613415
 C         -54.178020     -148.852371      -50.736351
 C         -55.621799     -147.122208      -49.690720
 C         -54.852158     -147.497345      -51.054302
 H         -52.800674     -149.840897      -49.528271
 H         -52.163280     -148.310120      -49.859291
 H         -55.005543     -146.459549      -47.698204
 H         -53.704845     -146.286072      -48.964043
 H         -54.958717     -149.588257      -50.393448
 H         -53.834152     -149.324799      -51.677746
 H         -56.201820     -146.233688      -49.807667
 H         -56.487640     -147.941437      -49.506569
 H         -55.624908     -147.829300      -51.731544
 H         -54.138149     -146.751236      -51.538521
