20
 generated by VMD
 C         -29.459398      -74.641060      -19.617611
 N         -30.489943      -74.454826      -20.155684
 H         -25.839182      -73.501411      -18.892511
 H         -28.486324      -75.188789      -19.222942
 C         -25.682091      -73.355461      -19.949976
 C         -25.331903      -74.649170      -20.702721
 C         -25.438541      -72.005203      -20.543066
 C         -25.986069      -74.566917      -22.093161
 C         -26.066740      -71.960175      -21.879034
 C         -25.753096      -73.137291      -22.749437
 H         -25.707893      -75.526451      -20.174337
 H         -24.221910      -74.779480      -20.839361
 H         -25.938931      -71.191414      -20.000288
 H         -24.341377      -71.840256      -20.438807
 H         -27.063131      -74.917084      -22.030270
 H         -25.571131      -75.280907      -22.831078
 H         -25.580050      -71.094620      -22.226620
 H         -27.117149      -71.552208      -21.859484
 H         -26.230787      -72.978584      -23.659615
 H         -24.656322      -73.087021      -22.967133
