20
 generated by VMD
 C         -68.326691     -188.138794      -66.638023
 N         -68.730766     -189.150497      -67.007988
 H         -68.359734     -187.159210      -63.588661
 H         -67.969093     -187.198364      -66.248047
 C         -69.321289     -187.659439      -63.545715
 C         -69.379189     -189.174500      -63.340954
 C         -70.499512     -186.715759      -63.194839
 C         -70.818069     -189.696655      -63.771263
 C         -71.723892     -187.287750      -63.826893
 C         -71.975067     -188.707352      -63.336914
 H         -69.084450     -189.399872      -62.302288
 H         -68.658463     -189.756760      -63.938057
 H         -70.632225     -186.761841      -62.126957
 H         -70.292831     -185.719025      -63.730534
 H         -71.035484     -190.715271      -63.314987
 H         -70.889549     -189.919907      -64.820015
 H         -71.641655     -187.260757      -64.902969
 H         -72.499374     -186.598145      -63.403759
 H         -72.072487     -188.635284      -62.215450
 H         -72.859718     -189.146133      -63.646484
