20
 generated by VMD
 C         -60.625256     -156.275650      -54.639313
 N         -60.189636     -155.438187      -55.391182
 H         -59.791618     -157.058533      -51.570820
 H         -61.111961     -157.054306      -53.998390
 C         -58.783951     -156.939163      -52.029724
 C         -58.095127     -155.652069      -52.064087
 C         -57.894833     -158.217422      -52.066666
 C         -57.000721     -155.680756      -50.925446
 C         -56.772774     -158.281982      -50.957886
 C         -56.067196     -156.862610      -50.982861
 H         -58.681923     -154.644928      -51.854252
 H         -57.659870     -155.508774      -53.087425
 H         -58.538662     -159.115723      -52.177132
 H         -57.502468     -158.240158      -53.025963
 H         -57.392433     -155.629807      -49.918175
 H         -56.602222     -154.679947      -51.153645
 H         -56.266499     -159.285065      -51.147205
 H         -57.219513     -158.350098      -49.983162
 H         -55.270287     -156.732483      -50.260910
 H         -55.462074     -156.810272      -51.935528
