20
 generated by VMD
 C         -45.351460     -123.193703      -35.427769
 N         -45.833622     -124.244011      -35.263382
 H         -44.865215     -122.333916      -38.388939
 H         -44.706993     -122.281715      -35.570309
 C         -44.793255     -121.602509      -39.124672
 C         -43.376953     -121.409187      -39.622658
 C         -45.949436     -120.747307      -39.548023
 C         -43.355953     -120.892891      -41.052097
 C         -45.806793     -120.168205      -40.920998
 C         -44.406216     -119.837349      -41.318462
 H         -42.691238     -122.348907      -39.456524
 H         -42.999508     -120.681831      -38.956944
 H         -46.818466     -121.363686      -39.275928
 H         -46.082058     -119.785599      -38.941738
 H         -43.520615     -121.704666      -41.704361
 H         -42.386505     -120.400688      -41.284592
 H         -46.483086     -119.289841      -41.141640
 H         -46.328674     -120.880226      -41.518829
 H         -44.484554     -119.728500      -42.411976
 H         -44.133671     -118.826935      -40.859436
