20
 generated by VMD
 C         -19.468565      -60.824024      -17.550600
 N         -20.104765      -59.886875      -17.746063
 H         -22.506449      -60.254913      -16.016365
 H         -18.851328      -61.613117      -17.546171
 C         -22.994831      -61.201279      -16.190580
 C         -23.221931      -61.768524      -17.608456
 C         -23.675934      -61.887104      -15.048862
 C         -22.934433      -63.281960      -17.573492
 C         -23.162994      -63.264580      -14.987370
 C         -23.342764      -64.049301      -16.298990
 H         -22.881456      -61.138973      -18.455669
 H         -24.380562      -61.641876      -17.719612
 H         -23.396645      -61.359177      -14.198008
 H         -24.766394      -61.783665      -15.101200
 H         -21.839607      -63.274796      -17.704596
 H         -23.308189      -63.792603      -18.442236
 H         -23.827265      -63.794048      -14.279653
 H         -22.070736      -63.298100      -14.683242
 H         -22.684147      -64.903107      -16.131042
 H         -24.394379      -64.447937      -16.323141
