20
 generated by VMD
 C         -78.038185     -204.199249      -69.780403
 N         -79.101067     -203.686783      -69.975784
 H         -75.731400     -202.549988      -67.639824
 H         -77.117012     -204.649109      -69.363510
 C         -75.392487     -202.468979      -68.617416
 C         -75.806908     -201.247314      -69.443947
 C         -74.253708     -203.383820      -69.040337
 C         -74.957611     -201.282623      -70.781151
 C         -73.095482     -202.553192      -69.423027
 C         -73.460037     -201.324097      -70.254776
 H         -75.745125     -200.244797      -68.939980
 H         -76.818092     -201.305420      -69.787537
 H         -73.880402     -203.991653      -68.189835
 H         -74.570396     -203.948441      -69.868973
 H         -75.111404     -200.306168      -71.303017
 H         -75.201744     -202.138916      -71.406113
 H         -72.330658     -203.098907      -70.011253
 H         -72.660759     -202.201157      -68.476479
 H         -73.288185     -200.428894      -69.551956
 H         -72.760269     -201.163437      -71.114334
