20
 generated by VMD
 C         -11.809937      -33.643082       -8.626672
 N         -10.861848      -34.209488       -8.873083
 H         -11.506384      -36.834412       -8.015924
 H         -12.227770      -36.149410       -6.486097
 C         -12.254430      -37.020718       -7.222947
 C         -12.024122      -38.388771       -6.617524
 C         -13.683946      -36.875515       -7.736961
 C         -13.014285      -38.622017       -5.413828
 C         -14.715468      -37.168121       -6.647146
 C         -14.413091      -38.588600       -5.982912
 H         -10.998153      -38.442776       -6.269357
 H         -12.046488      -39.223019       -7.357808
 H         -13.857451      -35.928856       -8.201612
 H         -13.778032      -37.638504       -8.566076
 H         -12.951578      -37.947762       -4.595851
 H         -12.759953      -39.609314       -4.927373
 H         -15.714750      -37.275486       -7.041390
 H         -14.728644      -36.433002       -5.787111
 H         -15.125699      -38.835911       -5.207510
 H         -14.587918      -39.325092       -6.795444
