20
 generated by VMD
 C         -10.130335      -36.781212       -7.207762
 N         -10.348020      -36.499138       -8.243395
 H         -13.291635      -37.882202       -7.941199
 H         -14.555744      -38.374908       -6.694244
 C         -14.122401      -38.656147       -7.647976
 C         -13.415963      -40.033379       -7.550890
 C         -15.277574      -38.698570       -8.652715
 C         -14.357022      -41.243122       -7.423545
 C         -16.235962      -39.859318       -8.451171
 C         -15.482667      -41.223850       -8.512745
 H         -12.558653      -39.976612       -6.864178
 H         -12.851436      -40.268311       -8.483786
 H         -15.765529      -37.751568       -8.781712
 H         -14.894605      -38.862637       -9.670631
 H         -14.849546      -41.350845       -6.427641
 H         -13.784444      -42.173615       -7.494211
 H         -17.033022      -39.779770       -9.215199
 H         -16.719250      -39.699783       -7.464241
 H         -16.160686      -42.022667       -8.344377
 H         -15.008044      -41.373943       -9.486365
