20
 generated by VMD
 C         -74.129211     -200.991226      -65.847084
 N         -73.023598     -200.923203      -66.201538
 H         -76.029099     -198.385361      -67.688087
 H         -75.126900     -201.345749      -65.716080
 C         -75.137627     -198.035721      -68.166565
 C         -74.858963     -196.535522      -67.878998
 C         -74.461800     -198.807724      -69.228767
 C         -73.499756     -196.039017      -68.392555
 C         -73.393349     -198.044266      -69.912201
 C         -72.619041     -197.147888      -68.869293
 H         -74.897476     -196.521301      -66.680237
 H         -75.746918     -196.071121      -68.183388
 H         -74.088623     -199.768890      -68.867134
 H         -75.238327     -199.040344      -69.932404
 H         -72.998199     -195.470535      -67.537781
 H         -73.611031     -195.329849      -69.216705
 H         -73.913841     -197.408371      -70.667076
 H         -72.562065     -198.690552      -70.378380
 H         -72.218330     -197.669327      -67.966705
 H         -71.716293     -196.684189      -69.412590
