20
 generated by VMD
 C         -67.393509     -192.360352      -67.161720
 N         -68.370918     -192.762314      -66.709953
 H         -69.807419     -190.274490      -65.182884
 H         -66.505852     -191.859344      -67.608078
 C         -70.855431     -190.254990      -65.144920
 C         -71.706352     -190.772034      -66.199234
 C         -71.617180     -189.578766      -63.936817
 C         -72.677185     -191.771530      -65.566780
 C         -73.102928     -189.916092      -63.929855
 C         -73.346313     -191.400742      -64.294380
 H         -71.105713     -191.245773      -66.997200
 H         -72.226364     -190.006409      -66.691711
 H         -71.186882     -189.935532      -62.921452
 H         -71.428444     -188.516418      -64.127884
 H         -72.173508     -192.777740      -65.479919
 H         -73.518234     -192.022812      -66.203918
 H         -73.642494     -189.208176      -64.568565
 H         -73.637405     -189.781815      -62.977009
 H         -72.994423     -191.960876      -63.485645
 H         -74.431328     -191.644211      -64.601120
