20
 generated by VMD
 C         -69.813179     -184.837280      -66.567741
 N         -68.994804     -184.531555      -67.356750
 H         -69.758858     -183.174118      -63.095169
 H         -70.516724     -185.213364      -65.795883
 C         -69.142303     -183.504608      -62.275337
 C         -69.502495     -184.472595      -61.247238
 C         -68.097931     -182.433411      -61.931137
 C         -68.273735     -185.192688      -60.808941
 C         -66.876534     -182.973587      -61.278328
 C         -67.278534     -184.087982      -60.280956
 H         -70.278099     -185.130646      -61.765060
 H         -69.942253     -183.981979      -60.362713
 H         -67.847038     -181.932220      -62.802414
 H         -68.605286     -181.679947      -61.318275
 H         -67.675369     -185.629654      -61.699459
 H         -68.486176     -186.075073      -60.095798
 H         -66.234123     -182.123962      -60.968410
 H         -66.201248     -183.493881      -61.970573
 H         -66.447830     -184.620453      -60.090427
 H         -67.614792     -183.691925      -59.323708
