20
 generated by VMD
 C         -47.615826     -136.636185      -45.893597
 N         -46.954929     -136.094025      -46.677887
 H         -50.931858     -135.565979      -45.696045
 H         -48.449886     -137.132339      -45.486847
 C         -51.492630     -136.362076      -45.262375
 C         -52.071293     -137.500992      -46.120457
 C         -51.939827     -136.327820      -43.858700
 C         -52.038746     -138.849701      -45.472458
 C         -51.774368     -137.697754      -43.178768
 C         -52.475471     -138.732529      -43.991104
 H         -51.468555     -137.437973      -46.961044
 H         -53.118950     -137.321548      -46.520615
 H         -51.268826     -135.580978      -43.363285
 H         -52.936871     -135.796417      -43.839306
 H         -50.976357     -139.164658      -45.468746
 H         -52.629059     -139.691879      -45.838520
 H         -52.292801     -137.602676      -42.275337
 H         -50.786091     -138.197495      -42.916409
 H         -52.412319     -139.775711      -43.447029
 H         -53.546848     -138.718353      -43.850117
