20
 generated by VMD
 C         -69.049500     -180.704849      -62.562469
 N         -70.069000     -180.345444      -62.111507
 H         -66.800171     -181.021362      -59.312878
 H         -68.055000     -181.117676      -62.875816
 C         -66.355270     -180.176758      -59.891094
 C         -65.177689     -180.317642      -60.727337
 C         -66.952103     -178.908875      -59.481651
 C         -64.820923     -179.012848      -61.573940
 C         -66.474174     -177.616119      -60.224270
 C         -65.087791     -177.652740      -60.819843
 H         -65.381119     -181.167633      -61.428364
 H         -64.243439     -180.524872      -60.083744
 H         -68.046364     -178.943283      -59.452549
 H         -66.593727     -178.801270      -58.384426
 H         -65.495728     -179.047668      -62.428391
 H         -63.853859     -179.218613      -62.014370
 H         -66.503479     -176.854645      -59.418686
 H         -67.190498     -177.445679      -61.014229
 H         -64.693214     -176.783493      -61.481930
 H         -64.331558     -177.924011      -59.964062
