20
 generated by VMD
 C         -69.321251     -180.304840      -60.278660
 N         -69.179192     -181.470535      -60.424393
 H         -67.413490     -177.431549      -59.611908
 H         -69.524734     -179.278687      -60.145248
 C         -66.338364     -177.219330      -59.849552
 C         -65.992050     -177.131699      -61.306961
 C         -65.290993     -177.114899      -58.858326
 C         -64.853973     -176.113419      -61.632977
 C         -64.273186     -176.057770      -59.277416
 C         -63.737507     -176.125916      -60.655556
 H         -66.881622     -176.829544      -61.835957
 H         -65.645798     -178.165695      -61.474945
 H         -65.638237     -176.737808      -57.926788
 H         -64.735138     -178.055099      -58.579990
 H         -65.171021     -175.061417      -61.869804
 H         -64.239532     -176.503540      -62.569790
 H         -63.398548     -175.963425      -58.581882
 H         -64.613724     -175.027481      -59.170174
 H         -63.175701     -175.217880      -60.758877
 H         -63.053291     -176.976273      -60.568367
