20
 generated by VMD
 C         -23.317474      -53.375252      -14.299004
 N         -24.173141      -53.245609      -14.992389
 H         -20.600021      -55.433746      -15.225699
 H         -22.609568      -53.646919      -13.297508
 C         -19.599913      -55.487175      -14.567439
 C         -19.286848      -54.241470      -13.681557
 C         -18.463217      -56.351643      -14.892406
 C         -18.112141      -54.448090      -12.703087
 C         -17.780413      -56.849907      -13.608685
 C         -17.215988      -55.629406      -12.936987
 H         -20.205029      -53.921944      -13.158452
 H         -19.219374      -53.354839      -14.302434
 H         -18.887890      -57.220646      -15.421308
 H         -17.747747      -55.852005      -15.525095
 H         -18.415257      -54.583599      -11.648061
 H         -17.551861      -53.518974      -12.641900
 H         -16.983351      -57.558445      -13.833599
 H         -18.481646      -57.341286      -12.895340
 H         -16.609110      -55.911865      -12.021018
 H         -16.473181      -55.255096      -13.637396
