20
 generated by VMD
 C         -69.950287     -184.318176      -66.090698
 N         -69.013542     -184.128082      -66.735245
 H         -69.586800     -183.882935      -63.394825
 H         -70.737236     -184.528015      -65.467300
 C         -68.957787     -183.636703      -62.584488
 C         -69.155045     -184.713776      -61.430462
 C         -68.127899     -182.475143      -62.353310
 C         -67.933746     -184.865280      -60.460796
 C         -66.930611     -182.874451      -61.428768
 C         -67.289597     -183.568649      -60.116825
 H         -69.497238     -185.703476      -61.832500
 H         -70.068703     -184.331863      -60.984306
 H         -67.615601     -182.105957      -63.259224
 H         -68.814880     -181.693512      -61.981205
 H         -67.448059     -185.758713      -60.821068
 H         -68.492554     -185.137375      -59.559841
 H         -66.324707     -182.030609      -61.059284
 H         -66.227554     -183.372375      -62.045551
 H         -66.492493     -183.550781      -59.389252
 H         -68.132523     -182.844543      -59.702751
