20
 generated by VMD
 C         -49.793743     -127.752068      -39.072514
 N         -49.580986     -126.675026      -38.694874
 H         -47.098454     -125.778786      -40.374989
 H         -49.801743     -128.750137      -39.440029
 C         -46.220234     -125.144951      -40.757347
 C         -44.849289     -125.806183      -40.468441
 C         -46.477539     -123.777794      -41.124279
 C         -43.698467     -124.923042      -40.886547
 C         -45.227314     -122.985916      -41.500774
 C         -44.016937     -123.430206      -40.717319
 H         -44.876259     -126.779579      -41.022060
 H         -44.722637     -126.123444      -39.465904
 H         -47.152321     -123.798561      -41.982651
 H         -46.866337     -123.045486      -40.286816
 H         -43.376797     -125.068756      -41.914978
 H         -42.867790     -125.149429      -40.214386
 H         -45.133892     -121.880096      -41.188530
 H         -44.932320     -123.079994      -42.584099
 H         -43.149292     -122.844116      -41.081417
 H         -44.176617     -123.067177      -39.659969
