20
 generated by VMD
 C         -43.318085     -121.167267      -35.867699
 N         -43.466209     -120.509628      -34.941116
 H         -44.841263     -122.362999      -39.245602
 H         -43.024982     -121.643494      -36.783218
 C         -44.682968     -121.296600      -39.356884
 C         -43.379696     -120.623077      -39.714378
 C         -45.751030     -120.338791      -38.848587
 C         -43.537037     -119.180290      -40.296036
 C         -45.803703     -118.901787      -39.409431
 C         -44.388168     -118.311180      -39.511021
 H         -42.900764     -121.249390      -40.416019
 H         -42.867695     -120.426964      -38.750782
 H         -46.700745     -120.793945      -39.126209
 H         -45.714581     -120.424896      -37.789295
 H         -44.049320     -119.053413      -41.295773
 H         -42.523460     -118.757576      -40.395809
 H         -46.459019     -118.323662      -38.683895
 H         -46.304070     -118.754845      -40.491684
 H         -44.393307     -117.309090      -39.994827
 H         -44.149551     -118.250763      -38.422508
