20
 generated by VMD
 C         -69.784744     -183.241562      -65.703697
 N         -70.771919     -182.642288      -65.867096
 H         -68.207481     -183.665024      -63.004486
 H         -68.859985     -183.709473      -65.483376
 C         -67.742653     -183.274109      -62.125576
 C         -67.734650     -184.002289      -60.827717
 C         -67.271301     -181.875534      -62.420704
 C         -66.874329     -183.320969      -59.772900
 C         -66.680046     -181.229385      -61.127594
 C         -67.130226     -181.830002      -59.818253
 H         -67.330902     -185.003784      -61.016762
 H         -68.791252     -184.048752      -60.402470
 H         -66.751457     -181.798309      -63.330517
 H         -68.074150     -181.135651      -62.572182
 H         -65.776878     -183.582352      -59.930603
 H         -67.253517     -183.647797      -58.772247
 H         -66.967499     -180.161667      -61.286110
 H         -65.582207     -181.204376      -61.085667
 H         -66.652527     -181.359558      -59.024193
 H         -68.165337     -181.625977      -59.813766
