20
 generated by VMD
 C         -65.697067     -177.661407      -56.786648
 N         -66.142830     -176.605591      -56.754715
 H         -65.033340     -175.544968      -59.437386
 H         -65.289589     -178.646896      -56.874767
 C         -64.614304     -174.452698      -59.512295
 C         -65.412552     -173.556702      -58.612392
 C         -63.472111     -174.137100      -60.314854
 C         -65.217598     -172.044830      -58.936020
 C         -63.145016     -172.745453      -60.264259
 C         -64.323090     -171.803223      -60.243107
 H         -64.953362     -173.549103      -57.587315
 H         -66.438316     -173.875824      -58.613201
 H         -62.564148     -174.729691      -60.002323
 H         -63.877068     -174.499161      -61.332188
 H         -64.573563     -171.656250      -58.100468
 H         -66.133255     -171.391632      -59.045258
 H         -62.638004     -172.628220      -61.165592
 H         -62.458759     -172.509903      -59.387325
 H         -64.053207     -170.747330      -60.308567
 H         -65.068222     -172.103790      -60.995419
