20
 generated by VMD
 C         -79.453278     -208.926620      -76.576027
 N         -79.038315     -210.028931      -76.633186
 H         -77.535637     -209.697449      -73.414124
 H         -79.823837     -207.968079      -76.424179
 C         -77.971169     -210.178177      -72.536621
 C         -77.022079     -210.688843      -71.377075
 C         -79.143608     -211.153366      -72.934624
 C         -77.793037     -211.373062      -70.274117
 C         -79.765717     -211.763763      -71.711784
 C         -78.859116     -212.416611      -70.707664
 H         -76.437057     -209.814011      -70.921532
 H         -76.296761     -211.416473      -71.888649
 H         -79.924355     -210.663162      -73.493980
 H         -78.640755     -211.807266      -73.603058
 H         -78.226715     -210.627472      -69.567322
 H         -77.060059     -211.877502      -69.603401
 H         -80.614067     -212.482117      -72.039444
 H         -80.293465     -211.047562      -71.210724
 H         -79.400894     -212.995010      -69.939995
 H         -78.288475     -213.086197      -71.377342
