20
 generated by VMD
 C         -41.467831     -119.281616      -34.584656
 N         -40.911888     -119.714905      -35.511868
 H         -43.451012     -118.108162      -36.609459
 H         -42.178864     -119.095734      -33.727356
 C         -43.866734     -117.973183      -37.549789
 C         -42.886616     -118.098671      -38.749302
 C         -45.205170     -117.279099      -37.616337
 C         -43.713730     -118.523666      -39.909481
 C         -45.941765     -117.891365      -38.801384
 C         -45.004925     -117.754440      -40.032074
 H         -42.083317     -118.795944      -38.585323
 H         -42.520790     -117.131493      -39.046829
 H         -45.778564     -117.546608      -36.703091
 H         -44.943390     -116.148529      -37.592682
 H         -44.100685     -119.544754      -39.718357
 H         -43.079472     -118.545952      -40.876694
 H         -46.984188     -117.341759      -38.840229
 H         -46.176373     -118.916748      -38.470222
 H         -45.524334     -118.078125      -40.901958
 H         -44.743469     -116.663544      -40.191193
