20
 generated by VMD
 C         -70.019951     -182.948547      -65.945366
 N         -71.104210     -183.217499      -65.672173
 H         -68.012047     -182.859940      -63.115055
 H         -69.028343     -182.783691      -66.265640
 C         -67.456482     -182.559723      -62.199192
 C         -67.616516     -183.463379      -60.980389
 C         -67.137344     -181.103271      -61.996758
 C         -66.701683     -183.132645      -59.787971
 C         -66.264381     -180.925201      -60.713776
 C         -66.777809     -181.681213      -59.531155
 H         -67.654976     -184.519333      -61.188145
 H         -68.749725     -183.381592      -60.613888
 H         -66.625336     -180.491669      -62.773537
 H         -68.182922     -180.646576      -61.803982
 H         -65.684402     -183.458633      -59.870522
 H         -67.015709     -183.553116      -58.733315
 H         -66.206543     -179.848816      -60.414951
 H         -65.264977     -181.216370      -61.080982
 H         -66.048195     -181.388229      -58.704159
 H         -67.802841     -181.426788      -59.185509
