20
 generated by VMD
 C         -47.749653     -136.695328      -46.008953
 N         -47.054214     -136.378723      -46.901760
 H         -50.482059     -135.819000      -45.501877
 H         -48.118416     -136.919266      -45.038898
 C         -51.103428     -136.693573      -45.158482
 C         -51.623619     -137.721542      -46.126492
 C         -51.939182     -136.641785      -43.819321
 C         -52.068527     -139.092529      -45.464035
 C         -52.409554     -137.956985      -43.245831
 C         -53.091259     -138.831604      -44.376480
 H         -50.856674     -137.857178      -46.964314
 H         -52.451344     -137.346359      -46.658474
 H         -51.267632     -136.216568      -43.029190
 H         -52.837402     -136.011047      -43.873421
 H         -51.152405     -139.474365      -45.001438
 H         -52.514290     -139.763046      -46.212284
 H         -53.111668     -137.668106      -42.354786
 H         -51.507221     -138.484238      -42.954334
 H         -53.382214     -139.752350      -43.988052
 H         -53.878174     -138.331055      -44.934116
