20
 generated by VMD
 C         -21.863605      -52.279423      -11.458749
 N         -21.798901      -52.838120      -10.469342
 H         -20.035652      -52.297318      -14.091881
 H         -22.076008      -51.859081      -12.374203
 C         -19.021614      -51.822235      -13.781277
 C         -17.998814      -51.752365      -14.856512
 C         -18.562851      -51.745888      -12.374870
 C         -16.487345      -52.044552      -14.481858
 C         -17.110949      -51.382225      -12.092199
 C         -16.128958      -52.187317      -13.003841
 H         -18.051600      -50.725533      -15.253650
 H         -18.201981      -52.431190      -15.635466
 H         -19.173367      -51.041042      -11.813372
 H         -18.707438      -52.784416      -11.920781
 H         -15.856040      -51.184910      -14.815383
 H         -16.144266      -52.877327      -15.134923
 H         -16.936068      -51.607597      -10.991153
 H         -16.980339      -50.347546      -12.203571
 H         -15.095901      -51.824081      -12.846731
 H         -16.022943      -53.204994      -12.614891
