20
 generated by VMD
 C         -68.246460     -179.719711      -58.952023
 N         -68.161064     -179.947144      -60.079498
 H         -67.546463     -176.825989      -59.652691
 H         -68.352592     -179.432770      -57.946068
 C         -66.459358     -176.815445      -60.035553
 C         -66.073532     -176.369659      -61.433945
 C         -65.261719     -177.199585      -59.203049
 C         -64.999352     -175.262863      -61.363117
 C         -64.206413     -176.148804      -59.080627
 C         -63.853962     -175.640762      -60.505157
 H         -66.947189     -176.004730      -61.978348
 H         -65.720604     -177.270813      -61.859966
 H         -65.443512     -177.281570      -58.106743
 H         -64.766014     -178.107330      -59.434002
 H         -65.677628     -174.391296      -60.945316
 H         -64.706520     -174.958832      -62.342159
 H         -63.332817     -176.600006      -58.669609
 H         -64.459351     -175.315872      -58.431999
 H         -63.259800     -174.745529      -60.424606
 H         -63.260593     -176.427261      -60.854256
