20
 generated by VMD
 C         -16.560106      -47.701515       -7.293090
 N         -16.231455      -46.641254       -7.243715
 H         -16.917583      -48.360489      -10.318417
 H         -15.581984      -48.194706      -11.312958
 C         -16.515753      -47.703327      -11.073367
 C         -16.197525      -46.335594      -10.460951
 C         -17.487322      -47.777641      -12.285238
 C         -15.863147      -45.350765      -11.578366
 C         -16.965990      -46.880600      -13.416689
 C         -16.869471      -45.498230      -12.773640
 H         -15.366152      -46.393833       -9.762147
 H         -17.172211      -45.995609      -10.005259
 H         -17.426952      -48.805969      -12.646518
 H         -18.483286      -47.488834      -11.924861
 H         -14.880790      -45.587227      -12.007313
 H         -15.904919      -44.307167      -11.213750
 H         -17.723816      -46.733200      -14.299141
 H         -16.052502      -47.307056      -13.832319
 H         -16.550787      -44.815655      -13.563601
 H         -17.895947      -45.231548      -12.371290
