20
 generated by VMD
 C         -33.608799      -96.301361      -25.588362
 N         -34.421688      -96.605682      -26.383129
 H         -35.176643      -93.927116      -27.390858
 H         -32.838238      -96.268471      -24.829691
 C         -34.852940      -94.195221      -28.372274
 C         -35.967258      -94.685669      -29.299738
 C         -33.542404      -93.812630      -28.995651
 C         -36.151245      -93.810242      -30.579374
 C         -33.705845      -92.928986      -30.207758
 C         -34.809895      -93.453300      -31.226204
 H         -36.939793      -94.855110      -28.813284
 H         -35.552486      -95.623428      -29.613997
 H         -33.056843      -93.185097      -28.199348
 H         -32.946022      -94.725929      -29.133980
 H         -36.764050      -92.980896      -30.297737
 H         -36.849106      -94.339996      -31.258936
 H         -32.698105      -93.012939      -30.739470
 H         -33.796864      -91.868462      -30.082260
 H         -35.073906      -92.727486      -31.952724
 H         -34.611385      -94.319130      -31.753040
