20
 generated by VMD
 C         -19.956276      -59.555870      -17.468384
 N         -19.390610      -58.896671      -18.219704
 H         -23.000639      -59.671848      -16.174227
 H         -20.591587      -60.168530      -17.000774
 C         -22.986498      -60.719337      -16.062319
 C         -23.305807      -61.543415      -17.271832
 C         -22.846617      -61.441673      -14.757371
 C         -22.905167      -63.018394      -17.175367
 C         -22.587120      -62.999947      -14.637429
 C         -23.304607      -63.668861      -15.825529
 H         -22.697647      -61.174877      -18.092287
 H         -24.418613      -61.448956      -17.397020
 H         -22.028851      -61.046638      -14.193002
 H         -23.781561      -61.188519      -14.242248
 H         -21.818935      -63.097210      -17.428223
 H         -23.464252      -63.563362      -17.964266
 H         -22.825277      -63.363377      -13.665544
 H         -21.539116      -63.117199      -14.798910
 H         -23.002773      -64.723068      -15.834234
 H         -24.335863      -63.545128      -15.634838
