20
 generated by VMD
 C         -29.197460      -73.409294      -19.239471
 N         -29.685690      -74.413170      -18.818422
 H         -25.836525      -73.205322      -18.926907
 H         -28.995983      -72.613525      -19.814508
 C         -25.421814      -72.903839      -19.877020
 C         -24.891092      -73.907776      -20.791256
 C         -25.610516      -71.465569      -20.400362
 C         -25.591499      -73.861679      -22.105804
 C         -26.357723      -71.522026      -21.839636
 C         -25.547718      -72.525856      -22.742899
 H         -24.871502      -74.896408      -20.383980
 H         -23.761597      -73.693077      -20.842926
 H         -26.240517      -70.840874      -19.782982
 H         -24.592669      -70.966690      -20.376356
 H         -26.613934      -74.278046      -22.007978
 H         -25.145739      -74.624336      -22.773773
 H         -26.446657      -70.566086      -22.241154
 H         -27.346550      -71.838860      -21.643343
 H         -26.061417      -72.693916      -23.707928
 H         -24.452106      -72.267426      -22.990131
