20
 generated by VMD
 C         -22.213385      -67.375954      -16.295546
 N         -21.110622      -67.067268      -16.137085
 H         -23.974703      -65.249306      -18.296942
 H         -23.263515      -67.664642      -16.158724
 C         -24.386745      -66.203232      -18.545080
 C         -23.953108      -66.514984      -19.887369
 C         -25.859951      -66.343521      -18.223383
 C         -24.399282      -67.931381      -20.283989
 C         -26.479410      -67.666862      -18.715897
 C         -25.839739      -68.089882      -20.089220
 H         -22.918079      -66.524208      -20.028122
 H         -24.277714      -65.712585      -20.679667
 H         -25.942282      -66.349411      -17.120810
 H         -26.288332      -65.520271      -18.701328
 H         -23.893608      -68.706627      -19.599257
 H         -24.130884      -68.190651      -21.314981
 H         -27.569309      -67.376236      -18.735502
 H         -26.414936      -68.502678      -18.027744
 H         -26.163546      -69.106606      -20.359386
 H         -26.333345      -67.431458      -20.769968
