20
 generated by VMD
 C         -11.597923      -33.715050       -8.989223
 N         -11.213907      -34.544228       -8.395878
 H         -11.588037      -37.099922       -8.117357
 H         -12.038272      -36.435204       -6.541117
 C         -12.304649      -37.150208       -7.284650
 C         -11.994536      -38.452278       -6.530735
 C         -13.681080      -36.994984       -7.868872
 C         -13.129827      -38.817806       -5.553752
 C         -14.701915      -37.254902       -6.763958
 C         -14.500688      -38.605091       -6.175778
 H         -11.007248      -38.385014       -6.029637
 H         -11.998096      -39.263618       -7.229191
 H         -13.829179      -35.947987       -8.223637
 H         -13.814635      -37.729839       -8.639191
 H         -12.972933      -38.268539       -4.601990
 H         -13.114327      -39.847519       -5.373304
 H         -15.713111      -37.144524       -7.242668
 H         -14.609203      -36.447777       -6.072029
 H         -15.229128      -38.626926       -5.312694
 H         -14.762791      -39.487686       -6.775512
