20
 generated by VMD
 C         -51.074451     -145.217575      -44.433384
 N         -51.076355     -146.327469      -44.587482
 H         -53.140865     -144.350540      -46.418644
 H         -50.978962     -144.186874      -44.214066
 C         -53.549068     -143.905258      -47.334641
 C         -52.695347     -143.781342      -48.458649
 C         -54.734150     -142.993851      -47.245293
 C         -53.431404     -143.740540      -49.755432
 C         -55.439701     -142.788559      -48.499126
 C         -54.454712     -142.591431      -49.744251
 H         -52.079273     -144.775650      -48.404587
 H         -52.061687     -142.930161      -48.280972
 H         -55.487778     -143.220566      -46.486103
 H         -54.349548     -141.972015      -46.763725
 H         -53.820919     -144.690948      -50.125168
 H         -52.688511     -143.509491      -50.514309
 H         -56.211391     -141.999466      -48.500019
 H         -55.994869     -143.667953      -48.592205
 H         -55.032650     -142.666321      -50.680592
 H         -53.978306     -141.547867      -49.572800
