20
 generated by VMD
 C         -53.037853     -146.792023      -44.746109
 N         -51.898876     -146.935776      -44.705425
 H         -54.586491     -146.408524      -47.564426
 H         -54.080017     -146.657730      -44.727684
 C         -54.231503     -145.519623      -48.114025
 C         -52.980053     -145.401749      -49.024837
 C         -54.940361     -144.288025      -47.676495
 C         -53.413940     -144.613815      -50.362000
 C         -55.301750     -143.573868      -48.945850
 C         -54.122494     -143.258652      -49.915085
 H         -52.742809     -146.526657      -49.297905
 H         -52.183170     -144.985626      -48.421852
 H         -55.883968     -144.637894      -47.126743
 H         -54.143250     -143.708984      -46.996014
 H         -53.941486     -145.404388      -50.876747
 H         -52.445915     -144.366287      -50.872204
 H         -55.834824     -142.551178      -48.735886
 H         -55.977299     -144.198090      -49.508984
 H         -54.434315     -142.583710      -50.810539
 H         -53.434315     -142.552170      -49.307892
