20
 generated by VMD
 C          -1.229965      -12.574029        1.296235
 N          -0.714619      -12.733046        0.296928
 H          -4.152127      -12.948172        1.184678
 H          -5.836303      -13.137273        0.574538
 C          -4.993962      -13.647943        1.142165
 C          -5.312143      -14.084902        2.600967
 C          -4.494619      -14.907382        0.456430
 C          -6.432120      -15.126588        2.648934
 C          -5.522240      -16.097622        0.444222
 C          -6.064489      -16.367773        1.869329
 H          -5.780025      -13.225635        3.103973
 H          -4.400776      -14.556033        3.091845
 H          -4.222541      -14.720967       -0.657863
 H          -3.493760      -15.242231        0.964057
 H          -7.297719      -14.723070        2.147927
 H          -6.657823      -15.421855        3.660931
 H          -5.055233      -17.017193        0.083815
 H          -6.340888      -15.884219       -0.206011
 H          -6.891123      -17.099157        1.997184
 H          -5.214336      -16.717209        2.474505
