20
 generated by VMD
 C         -54.902725     -148.441086      -45.191879
 N         -54.509148     -148.633911      -44.087193
 H         -54.745895     -148.196075      -49.014992
 H         -55.228909     -148.105316      -46.214649
 C         -54.440437     -147.186996      -49.246616
 C         -53.158276     -146.882904      -50.128597
 C         -55.031605     -145.998062      -48.540573
 C         -53.294212     -145.522522      -50.862282
 C         -55.158329     -144.644684      -49.462517
 C         -53.808239     -144.360260      -50.161041
 H         -52.943554     -147.664688      -50.931683
 H         -52.336441     -146.875458      -49.427917
 H         -56.031727     -146.231949      -47.963177
 H         -54.296291     -145.701721      -47.748466
 H         -54.007198     -145.709457      -51.678196
 H         -52.248974     -145.312317      -51.325039
 H         -55.283531     -143.852661      -48.777016
 H         -56.175819     -144.650513      -50.130871
 H         -53.941864     -143.515182      -50.869007
 H         -53.065514     -144.157700      -49.331799
