20
 generated by VMD
 C         -49.475861     -132.992981      -47.109474
 N         -49.710888     -131.868622      -47.015427
 H         -47.813911     -134.317154      -44.349186
 H         -49.194538     -134.027847      -47.406750
 C         -48.653530     -134.607468      -43.772240
 C         -49.130863     -135.962494      -43.916245
 C         -49.504044     -133.595352      -43.114162
 C         -49.994633     -136.516830      -42.751064
 C         -50.375599     -134.227661      -41.898056
 C         -51.068554     -135.503281      -42.298691
 H         -48.227623     -136.668976      -44.093719
 H         -49.707642     -136.028564      -44.816223
 H         -48.867050     -132.947357      -42.522743
 H         -49.992516     -133.010010      -43.782242
 H         -49.287666     -136.840714      -41.951172
 H         -50.448410     -137.531097      -43.066647
 H         -51.092121     -133.403854      -41.645573
 H         -49.772247     -134.392075      -40.896275
 H         -51.458714     -135.973450      -41.290813
 H         -51.778042     -135.196060      -43.118599
