20
 generated by VMD
 C          -1.803011      -13.012493        0.527003
 N          -1.507120      -13.794363        1.260724
 H          -3.644572      -15.444490        1.862224
 H          -4.122018      -15.167424        0.196461
 C          -4.438727      -15.652945        1.141014
 C          -5.600370      -14.925908        1.734496
 C          -4.622427      -17.165239        0.876969
 C          -6.841716      -15.170479        0.998625
 C          -5.979297      -17.418091        0.212648
 C          -7.152503      -16.671534        0.842281
 H          -5.284919      -13.863839        1.690520
 H          -5.697215      -15.265972        2.727536
 H          -3.733501      -17.588793        0.175787
 H          -4.536371      -17.810757        1.845793
 H          -6.789854      -14.780213       -0.056889
 H          -7.736253      -14.667825        1.474801
 H          -6.185147      -18.483725        0.030035
 H          -5.774734      -17.030914       -0.832710
 H          -8.026514      -16.790419        0.205822
 H          -7.422647      -17.104485        1.817253
