20
 generated by VMD
 C         -12.287291      -32.182487       -8.581839
 N         -12.791870      -31.408955       -9.216071
 H         -10.339104      -34.335381       -7.165077
 H         -11.258909      -33.583637       -5.838233
 C         -11.032095      -34.579468       -6.280481
 C         -10.429872      -35.480362       -5.265330
 C         -12.335334      -35.289364       -6.755111
 C         -11.361992      -35.851955       -4.181588
 C         -13.377206      -35.628757       -5.653686
 C         -12.663411      -36.449860       -4.574283
 H          -9.535237      -35.028187       -4.905651
 H         -10.149703      -36.400375       -5.840061
 H         -12.777528      -34.682678       -7.553584
 H         -11.974895      -36.189056       -7.279320
 H         -11.526916      -34.905231       -3.644207
 H         -10.922719      -36.562157       -3.493482
 H         -14.284290      -36.173069       -6.035335
 H         -13.709680      -34.725029       -5.135229
 H         -13.268873      -36.679863       -3.759275
 H         -12.366364      -37.402195       -5.024360
