20
 generated by VMD
 C         -28.285450      -82.368866      -26.643894
 N         -27.442793      -83.083031      -27.074411
 H         -31.395926      -84.053406      -26.410040
 H         -29.079636      -81.779106      -26.416857
 C         -31.516642      -84.826096      -25.744223
 C         -31.053787      -84.618370      -24.339457
 C         -32.187153      -86.076561      -26.197390
 C         -32.104633      -85.112648      -23.393591
 C         -33.075218      -86.637886      -25.154480
 C         -32.384834      -86.580078      -23.724419
 H         -30.649837      -83.635925      -24.220423
 H         -30.279589      -85.232887      -24.027561
 H         -32.704090      -85.933441      -27.130859
 H         -31.299397      -86.763420      -26.267862
 H         -33.061478      -84.500130      -23.360886
 H         -31.697420      -84.980675      -22.448273
 H         -33.220402      -87.637779      -25.533121
 H         -34.107346      -86.125298      -25.079477
 H         -33.225006      -86.956329      -23.040234
 H         -31.516930      -87.366058      -23.735695
