20
 generated by VMD
 C         -52.303547     -146.340805      -44.123035
 N         -51.681267     -146.487823      -45.107475
 H         -53.773693     -145.787399      -47.070442
 H         -52.730881     -146.089294      -43.136234
 C         -53.878098     -144.920914      -47.787132
 C         -52.918427     -144.847565      -48.852448
 C         -54.875271     -143.881882      -47.492229
 C         -53.443043     -144.290207      -50.156769
 C         -55.321671     -143.232117      -48.802567
 C         -54.245220     -143.014053      -49.868210
 H         -52.643017     -145.870911      -49.188515
 H         -51.976643     -144.327911      -48.628990
 H         -55.717430     -144.356110      -47.042934
 H         -54.339291     -143.199173      -46.873062
 H         -54.102768     -144.941162      -50.616928
 H         -52.536320     -143.971359      -50.665764
 H         -55.886452     -142.272293      -48.657715
 H         -55.937832     -143.956223      -49.200920
 H         -54.588120     -142.663589      -50.904514
 H         -53.537521     -142.228470      -49.604366
