20
 generated by VMD
 C         -21.520575      -55.986908      -17.495985
 N         -20.664713      -55.286900      -17.996582
 H         -23.355453      -58.710052      -15.352438
 H         -22.371931      -56.691242      -17.278976
 C         -22.420004      -59.170017      -15.098164
 C         -21.740543      -58.964523      -13.717945
 C         -21.738453      -60.003986      -16.173321
 C         -20.906389      -60.093475      -13.216141
 C         -20.248968      -60.441383      -15.645829
 C         -20.478230      -61.195526      -14.352337
 H         -22.443741      -58.540806      -13.009409
 H         -20.921707      -58.190304      -13.770150
 H         -22.257399      -60.954590      -16.349831
 H         -21.546289      -59.373550      -17.060507
 H         -21.357107      -60.548405      -12.360703
 H         -19.953520      -59.747150      -12.803675
 H         -19.536350      -59.656143      -15.485886
 H         -19.916977      -61.183113      -16.368927
 H         -21.096899      -62.089897      -14.339659
 H         -19.495361      -61.540226      -13.922332
