20
 generated by VMD
 C         -79.056282     -209.308212      -76.974739
 N         -79.001335     -209.794495      -75.924370
 H         -77.849968     -209.956100      -73.507240
 H         -79.103683     -208.898453      -77.902634
 C         -78.147217     -210.639404      -72.737480
 C         -77.117592     -211.145584      -71.688156
 C         -79.444534     -211.372162      -73.098045
 C         -78.017784     -211.448746      -70.379601
 C         -80.020241     -212.184326      -71.832336
 C         -78.937607     -212.547470      -70.816376
 H         -76.472038     -210.243347      -71.434013
 H         -76.476082     -211.985046      -72.035950
 H         -80.152832     -210.672302      -73.431641
 H         -79.342529     -212.069519      -73.912193
 H         -78.493690     -210.571533      -69.875061
 H         -77.374237     -211.857193      -69.559258
 H         -80.486885     -213.070709      -72.183922
 H         -80.716217     -211.487885      -71.323578
 H         -79.347015     -213.025818      -69.881104
 H         -78.328857     -213.328217      -71.316093
