20
 generated by VMD
 C         -68.404579     -185.393616      -67.433815
 N         -67.635033     -185.241531      -66.576035
 H         -69.226585     -186.879608      -64.882195
 H         -69.177208     -185.384659      -68.221848
 C         -69.603905     -186.835114      -63.827404
 C         -70.325859     -185.609863      -63.394489
 C         -69.621185     -188.098251      -62.974968
 C         -69.885277     -185.257202      -61.960838
 C         -69.231941     -187.733704      -61.536484
 C         -70.102074     -186.473785      -61.056381
 H         -71.433220     -185.795471      -63.479614
 H         -70.117760     -184.887360      -64.165863
 H         -70.692955     -188.505707      -62.921791
 H         -69.033234     -188.960419      -63.243008
 H         -70.470192     -184.374420      -61.608402
 H         -68.876778     -184.958298      -61.883102
 H         -68.127144     -187.421280      -61.350285
 H         -69.565094     -188.626633      -60.898819
 H         -71.079826     -187.027237      -60.970356
 H         -69.662537     -186.182877      -60.095554
