20
 generated by VMD
 C         -50.724121     -128.405182      -41.929897
 N         -51.893555     -128.426041      -41.857262
 H         -47.799210     -127.944847      -40.638741
 H         -49.674564     -128.423904      -42.171036
 C         -46.885231     -127.509773      -40.729950
 C         -45.690670     -128.058777      -40.141510
 C         -46.887447     -126.054573      -41.258488
 C         -44.436760     -127.513275      -40.845623
 C         -45.565369     -125.648941      -41.868992
 C         -44.322067     -126.021759      -41.160316
 H         -45.807930     -129.180740      -40.187923
 H         -45.654694     -127.757912      -39.104496
 H         -47.734005     -125.855652      -41.965698
 H         -47.403049     -125.487473      -40.421753
 H         -44.112820     -128.105988      -41.721115
 H         -43.593407     -127.867210      -40.258049
 H         -45.613804     -124.545479      -42.039677
 H         -45.498138     -126.092911      -42.906982
 H         -43.462658     -125.916748      -41.846371
 H         -44.164238     -125.562668      -40.207058
