20
 generated by VMD
 C         -11.288319      -34.277397       -8.810555
 N         -10.758047      -35.256077       -8.546335
 H         -12.146976      -36.998852       -7.441998
 H         -13.257539      -37.136822       -6.215250
 C         -12.899124      -37.672760       -7.107696
 C         -12.534300      -39.038761       -6.733112
 C         -14.035054      -37.712185       -8.100201
 C         -13.708336      -39.828270       -6.188162
 C         -15.238502      -38.354416       -7.415816
 C         -14.970591      -39.725086       -6.996325
 H         -11.794726      -39.062107       -5.955972
 H         -12.016830      -39.546299       -7.530516
 H         -14.377528      -36.733349       -8.472255
 H         -13.769697      -38.233906       -9.069771
 H         -13.846864      -39.439693       -5.189378
 H         -13.399953      -40.899422       -5.922959
 H         -16.081856      -38.377445       -8.099130
 H         -15.573024      -37.775379       -6.478177
 H         -15.856452      -40.127934       -6.510814
 H         -14.779337      -40.330410       -7.936875
