20
 generated by VMD
 C         -19.901165      -50.325665      -10.185889
 N         -20.129141      -51.219162       -9.477096
 H         -17.367868      -49.069180      -10.055372
 H         -19.504478      -49.566120      -10.555788
 C         -17.037851      -49.036743      -11.138108
 C         -15.902140      -49.837574      -11.643982
 C         -17.664762      -47.938263      -11.991853
 C         -16.266865      -50.310455      -12.999104
 C         -17.790754      -48.278984      -13.515728
 C         -16.543690      -49.090569      -13.867586
 H         -15.664428      -50.669716      -11.030354
 H         -15.009871      -49.202000      -11.619084
 H         -18.677189      -47.714386      -11.677023
 H         -17.183825      -46.981068      -11.830366
 H         -17.131704      -50.944859      -12.911140
 H         -15.488344      -50.915268      -13.463045
 H         -17.766582      -47.273796      -14.057929
 H         -18.710365      -48.812695      -13.759626
 H         -16.593620      -49.285797      -14.914836
 H         -15.716014      -48.435303      -13.660975
