20
 generated by VMD
 C         -50.787716     -129.615921      -45.382183
 N         -51.469624     -130.467178      -45.841927
 H         -48.711853     -130.610352      -43.610218
 H         -49.976826     -128.909836      -45.197460
 C         -48.174160     -130.732559      -42.759132
 C         -48.232113     -132.012253      -42.138557
 C         -47.794884     -129.559937      -41.923225
 C         -47.086987     -132.397202      -41.225437
 C         -46.575054     -129.787918      -41.070751
 C         -46.780346     -131.169540      -40.370705
 H         -48.238945     -132.928299      -42.873505
 H         -49.176323     -131.976624      -41.645687
 H         -47.704525     -128.741013      -42.590405
 H         -48.683323     -129.139206      -41.303009
 H         -46.135124     -132.620270      -41.713768
 H         -47.483467     -133.192352      -40.614750
 H         -46.528618     -128.911423      -40.365318
 H         -45.714535     -129.703674      -41.732719
 H         -45.928577     -131.210205      -39.640884
 H         -47.585423     -130.960052      -39.614986
