20
 generated by VMD
 C         -38.019531     -109.631371      -36.486683
 N         -37.445011     -108.888084      -35.819397
 H         -41.320305     -111.653801      -37.275204
 H         -38.565685     -110.362350      -37.072784
 C         -41.570900     -112.111938      -36.329224
 C         -42.288261     -113.514282      -36.406506
 C         -41.662453     -111.213531      -35.223343
 C         -42.639702     -113.936646      -34.980530
 C         -42.257988     -111.830841      -33.925655
 C         -43.271286     -112.871803      -34.141453
 H         -41.753860     -114.319626      -36.966698
 H         -43.215221     -113.211983      -36.953274
 H         -40.692425     -110.691383      -34.998657
 H         -42.335720     -110.350227      -35.300697
 H         -41.771973     -114.330269      -34.473850
 H         -43.223648     -114.938728      -34.929203
 H         -42.732208     -111.064255      -33.335598
 H         -41.400692     -112.144630      -33.392307
 H         -43.559872     -113.360703      -33.232204
 H         -44.297791     -112.464104      -34.623795
