20
 generated by VMD
 C         -29.639158      -89.497330      -25.073248
 N         -29.149467      -89.424377      -26.114208
 H         -31.993769      -91.061195      -27.022533
 H         -30.113672      -89.377693      -24.175777
 C         -32.891991      -90.664825      -27.537645
 C         -34.209534      -91.038239      -26.994617
 C         -32.808830      -89.581161      -28.506895
 C         -35.046741      -89.804100      -26.542330
 C         -33.460255      -88.353638      -27.908051
 C         -34.964108      -88.597206      -27.545641
 H         -33.926121      -91.688156      -26.154896
 H         -34.738613      -91.682991      -27.827379
 H         -31.766520      -89.253090      -28.755951
 H         -33.311024      -89.834610      -29.454285
 H         -34.843658      -89.530998      -25.429697
 H         -36.059208      -90.242279      -26.528181
 H         -33.441292      -87.524544      -28.667416
 H         -32.844093      -88.004326      -26.988054
 H         -35.366489      -87.724052      -27.068598
 H         -35.451942      -88.958382      -28.336037
