20
 generated by VMD
 C         -69.883835     -183.108414      -65.907196
 N         -71.015846     -182.948822      -65.732147
 H         -67.258827     -183.410431      -63.206051
 H         -68.778732     -183.170685      -65.989037
 C         -67.297035     -182.936081      -62.207024
 C         -67.757462     -183.629639      -60.991543
 C         -67.430237     -181.426346      -62.087761
 C         -66.902885     -183.223389      -59.706230
 C         -66.442101     -181.039902      -60.983604
 C         -66.740135     -181.713318      -59.591297
 H         -67.674812     -184.716278      -61.070419
 H         -68.808464     -183.405334      -60.721882
 H         -67.206886     -181.154785      -63.042381
 H         -68.449898     -181.157578      -61.722530
 H         -65.978294     -183.859894      -59.753109
 H         -67.346298     -183.655273      -58.825268
 H         -66.517029     -179.965317      -60.814701
 H         -65.380440     -181.277298      -61.165577
 H         -66.079872     -181.537125      -58.837185
 H         -67.746048     -181.326782      -59.385445
