20
 generated by VMD
 C         -20.797171      -56.535782      -16.898148
 N         -21.278774      -55.678627      -17.538172
 H         -22.800816      -58.432133      -16.243216
 H         -20.418011      -57.411591      -16.205824
 C         -22.051357      -59.106110      -15.798934
 C         -22.190317      -59.089355      -14.335407
 C         -21.693316      -60.492435      -16.379442
 C         -20.975821      -59.791981      -13.624729
 C         -20.514729      -61.174187      -15.689965
 C         -20.878922      -61.304340      -14.189893
 H         -23.219151      -59.416538      -14.008339
 H         -22.118872      -58.009750      -14.097603
 H         -22.564034      -61.151653      -16.460857
 H         -21.433840      -60.357460      -17.426645
 H         -21.214729      -59.838352      -12.545410
 H         -20.083117      -59.239105      -13.920099
 H         -19.591005      -60.720345      -15.957119
 H         -20.569656      -62.186279      -16.070906
 H         -21.760223      -61.960773      -14.013210
 H         -20.031307      -61.740849      -13.676929
