20
 generated by VMD
 C         -57.742611     -168.056122      -55.206406
 N         -56.686420     -168.394211      -54.885036
 H         -61.254055     -166.678619      -55.527157
 H         -58.767559     -167.670807      -55.335606
 C         -62.233803     -166.543625      -55.991840
 C         -62.550152     -167.414993      -57.191963
 C         -63.053654     -165.434738      -55.504829
 C         -64.051987     -167.486572      -57.499290
 C         -64.566628     -165.524887      -55.868172
 C         -64.754082     -166.028076      -57.345165
 H         -62.148823     -168.479263      -57.311775
 H         -62.148937     -166.982895      -57.995247
 H         -62.832920     -165.294540      -54.363937
 H         -62.579613     -164.594833      -55.983589
 H         -64.585258     -168.177460      -56.822250
 H         -64.273254     -167.889008      -58.527992
 H         -64.897552     -164.408905      -55.780075
 H         -65.185333     -165.940964      -55.057213
 H         -65.825470     -166.011810      -57.599251
 H         -64.163498     -165.327408      -57.969330
