20
 generated by VMD
 C         -70.322372     -182.539505      -63.666561
 N         -69.516151     -182.899948      -64.450996
 H         -68.677429     -180.280457      -62.425987
 H         -70.979004     -182.187195      -62.924702
 C         -67.970459     -180.466431      -61.546280
 C         -67.623619     -181.862442      -61.157024
 C         -67.111496     -179.372650      -60.806725
 C         -66.149429     -182.118179      -61.088974
 C         -65.664108     -179.687454      -60.530037
 C         -65.395790     -181.132919      -60.103142
 H         -67.975853     -182.682098      -61.772488
 H         -68.207001     -182.203094      -60.230083
 H         -67.114510     -178.502930      -61.367760
 H         -67.721718     -179.019348      -59.964745
 H         -65.644218     -182.027405      -62.066696
 H         -66.025352     -183.124237      -60.694359
 H         -65.432716     -179.104004      -59.638371
 H         -65.087784     -179.397537      -61.446224
 H         -64.345123     -181.390152      -60.098499
 H         -65.819504     -181.245148      -59.001289
