20
 generated by VMD
 C         -60.645962     -155.519287      -54.619617
 N         -61.120464     -156.509323      -54.393391
 H         -59.209595     -155.130569      -51.795998
 H         -60.117176     -154.576843      -54.739559
 C         -58.169537     -155.349030      -51.541718
 C         -57.477276     -154.630859      -50.441608
 C         -57.393757     -155.999435      -52.582897
 C         -56.281330     -155.264893      -49.821533
 C         -56.125210     -156.754532      -51.872364
 C         -55.414886     -155.769760      -50.839825
 H         -58.213272     -154.303726      -49.735252
 H         -57.189724     -153.610199      -50.809044
 H         -58.032345     -156.775864      -52.982922
 H         -56.958630     -155.544540      -53.514164
 H         -56.690746     -156.042419      -49.144428
 H         -55.661266     -154.534821      -49.373608
 H         -55.355938     -157.056519      -52.501476
 H         -56.574928     -157.610703      -51.341831
 H         -54.515572     -156.304428      -50.390408
 H         -54.986561     -154.908264      -51.350040
