20
 generated by VMD
 C         -40.908104     -103.420677      -35.627991
 N         -41.309216     -104.506355      -35.490501
 H         -38.751579     -104.494911      -34.072136
 H         -40.331509     -102.509354      -35.689861
 C         -38.527409     -105.032341      -33.108444
 C         -37.159645     -104.830544      -32.783825
 C         -39.361813     -106.232368      -32.788170
 C         -36.885151     -105.461761      -31.495905
 C         -38.947395     -107.027153      -31.528770
 C         -37.411938     -106.906334      -31.439650
 H         -36.796940     -103.783058      -32.747574
 H         -36.599701     -105.383507      -33.574978
 H         -40.338268     -105.874306      -32.644936
 H         -39.404018     -106.909531      -33.691502
 H         -37.343914     -104.911285      -30.615162
 H         -35.848145     -105.311974      -31.161076
 H         -39.269005     -108.017212      -31.572632
 H         -39.301174     -106.730087      -30.546587
 H         -37.086842     -107.453804      -30.498333
 H         -36.924004     -107.453598      -32.229729
