20
 generated by VMD
 C         -80.499237     -205.612671      -72.127937
 N         -79.954903     -206.656021      -72.048531
 H         -76.655434     -204.832779      -72.392021
 H         -81.153328     -204.769333      -71.929138
 C         -76.222496     -204.685120      -71.367409
 C         -75.100212     -203.696426      -71.213547
 C         -76.251045     -205.998703      -70.585136
 C         -74.407036     -203.782150      -69.766571
 C         -75.569771     -206.017517      -69.247688
 C         -74.229492     -205.210861      -69.270561
 H         -75.472710     -202.715073      -71.446991
 H         -74.374939     -203.947418      -72.079437
 H         -77.320435     -206.293106      -70.611221
 H         -75.689484     -206.790207      -71.209984
 H         -75.054642     -203.183075      -69.159630
 H         -73.408524     -203.341187      -69.996582
 H         -75.470909     -206.966843      -68.801826
 H         -76.258469     -205.485153      -68.517204
 H         -74.042824     -204.985153      -68.243095
 H         -73.433372     -205.890762      -69.704552
