20
 generated by VMD
 C          -1.727582      -13.848521        1.118727
 N          -1.822909      -12.817155        1.537572
 H          -3.695014      -17.286150        1.547250
 H          -4.145959      -17.075924       -0.078375
 C          -4.571604      -17.082821        0.935923
 C          -5.159548      -15.691539        1.169810
 C          -5.574492      -18.231216        0.924071
 C          -6.315151      -15.451022        0.250113
 C          -6.733657      -17.860491       -0.031630
 C          -7.371894      -16.556688        0.395448
 H          -4.365175      -14.960282        0.870439
 H          -5.382356      -15.630298        2.247669
 H          -5.147837      -19.142282        0.694762
 H          -5.984094      -18.484221        1.858600
 H          -6.055599      -15.376262       -0.757245
 H          -6.800472      -14.512306        0.502006
 H          -7.461101      -18.637619        0.091662
 H          -6.495726      -17.863914       -1.113133
 H          -8.187095      -16.277075       -0.292490
 H          -7.763400      -16.582657        1.426996
