20
 generated by VMD
 C         -49.675610     -141.493713      -45.536537
 N         -49.624611     -142.558517      -44.999760
 H         -51.770973     -138.793625      -46.152340
 H         -49.873451     -140.528152      -45.983761
 C         -52.219032     -139.691650      -46.430374
 C         -52.682838     -139.757874      -47.891514
 C         -52.987984     -140.278732      -45.371128
 C         -53.051224     -141.208389      -48.232014
 C         -53.471840     -141.740631      -45.869068
 C         -54.088203     -141.771927      -47.249348
 H         -51.846825     -139.414322      -48.537647
 H         -53.577888     -139.138153      -48.139900
 H         -52.329170     -140.555374      -44.577759
 H         -53.896721     -139.712677      -45.180862
 H         -52.162697     -141.886444      -48.100117
 H         -53.261391     -141.251709      -49.344997
 H         -54.231186     -142.098190      -45.205208
 H         -52.609524     -142.464096      -45.760448
 H         -54.259937     -142.807068      -47.713409
 H         -55.041767     -141.159637      -47.218735
