20
 generated by VMD
 C         -20.511591      -64.579735      -17.168516
 N         -19.997875      -64.860649      -16.178930
 H         -24.122482      -63.525208      -17.589874
 H         -21.082516      -63.948025      -17.984026
 C         -24.412703      -64.496017      -18.045467
 C         -24.758015      -64.753838      -19.449408
 C         -24.947760      -65.427467      -16.943333
 C         -24.631016      -66.153564      -19.754631
 C         -24.903145      -66.881363      -17.185682
 C         -25.246962      -67.148026      -18.703627
 H         -24.233412      -64.152496      -20.128336
 H         -25.848322      -64.502388      -19.569414
 H         -24.275278      -65.247849      -16.077576
 H         -25.974224      -65.161926      -16.916277
 H         -23.626566      -66.585770      -19.845747
 H         -25.105974      -66.463783      -20.728802
 H         -25.566307      -67.458794      -16.539192
 H         -23.855330      -67.242393      -16.966730
 H         -24.860479      -68.108452      -18.951385
 H         -26.334854      -67.131401      -18.968554
