20
 generated by VMD
 C         -61.737099     -154.565689      -53.956135
 N         -62.192032     -155.602631      -53.645546
 H         -58.149773     -154.865311      -52.248016
 H         -61.211372     -153.624619      -54.159176
 C         -57.211514     -154.771271      -51.639778
 C         -57.289062     -154.330750      -50.254662
 C         -55.920971     -154.663177      -52.351562
 C         -55.995293     -154.730515      -49.555634
 C         -54.653206     -155.053391      -51.605953
 C         -54.723362     -154.349442      -50.217609
 H         -58.076481     -154.925552      -49.643745
 H         -57.589424     -153.259201      -50.317875
 H         -55.844673     -155.246552      -53.269707
 H         -55.997261     -153.603165      -52.707603
 H         -56.080402     -155.763412      -49.225094
 H         -56.152721     -154.150284      -48.592129
 H         -53.706043     -154.835526      -52.160976
 H         -54.637188     -156.185028      -51.530209
 H         -53.961700     -154.891571      -49.567268
 H         -54.660965     -153.297424      -50.221581
