20
 generated by VMD
 C         -49.159000     -127.120956      -39.646408
 N         -50.287075     -127.246559      -39.421364
 H         -46.568783     -127.138504      -42.631287
 H         -48.215351     -126.932640      -40.169563
 C         -46.394821     -126.403900      -41.838440
 C         -45.340694     -126.983192      -40.844170
 C         -46.611954     -124.998505      -41.946220
 C         -44.202549     -125.921738      -40.431198
 C         -45.454762     -123.990234      -41.536831
 C         -44.926716     -124.554779      -40.169880
 H         -44.864616     -127.859886      -41.271629
 H         -46.051762     -127.357613      -39.976582
 H         -46.894859     -124.721336      -43.003616
 H         -47.437199     -124.762489      -41.384350
 H         -43.299679     -125.839180      -41.025368
 H         -43.905586     -126.309914      -39.464691
 H         -45.874638     -123.026985      -41.300339
 H         -44.586330     -124.040321      -42.167809
 H         -44.287453     -123.733170      -39.686607
 H         -45.753849     -124.779541      -39.463882
