20
 generated by VMD
 C         -16.495203      -47.679203       -7.280949
 N         -16.190432      -46.617569       -7.226696
 H         -16.979839      -48.301693      -10.167756
 H         -15.574186      -48.248047      -11.305079
 C         -16.503515      -47.785400      -11.008532
 C         -16.263033      -46.324413      -10.571344
 C         -17.425661      -47.738415      -12.235820
 C         -15.906394      -45.305294      -11.599339
 C         -16.963289      -46.844940      -13.378156
 C         -16.849798      -45.416523      -12.779270
 H         -15.506104      -46.313515       -9.796782
 H         -17.137722      -45.937420       -9.968825
 H         -17.646654      -48.752113      -12.589040
 H         -18.429371      -47.430779      -11.966866
 H         -14.861763      -45.402954      -11.875039
 H         -15.949830      -44.303631      -11.131865
 H         -17.660036      -47.091946      -14.295785
 H         -15.933891      -47.069256      -13.655922
 H         -16.541288      -44.686317      -13.549049
 H         -17.884790      -45.074203      -12.479660
