20
 generated by VMD
 C         -40.827614     -102.791260      -34.882149
 N         -41.470486     -102.526405      -35.807377
 H         -39.884892     -104.774933      -32.633945
 H         -40.089069     -102.950897      -34.104111
 C         -38.894314     -104.736427      -32.407413
 C         -37.583481     -104.027802      -32.982986
 C         -38.616035     -105.927032      -31.451134
 C         -36.453346     -104.056572      -31.939705
 C         -37.449902     -105.902931      -30.502785
 C         -36.232449     -105.404892      -31.299189
 H         -37.784237     -102.963432      -33.343819
 H         -37.379005     -104.715157      -33.811646
 H         -39.556183     -106.148987      -30.762108
 H         -38.548855     -106.699600      -32.171413
 H         -36.836815     -103.384720      -31.143524
 H         -35.523651     -103.622673      -32.354889
 H         -37.137150     -106.932144      -30.208582
 H         -37.759426     -105.407852      -29.639555
 H         -35.473728     -105.205849      -30.534960
 H         -35.837311     -106.255951      -31.969423
