20
 generated by VMD
 C         -70.241600     -196.664230      -65.331039
 N         -69.418755     -197.080414      -66.047852
 H         -73.770538     -195.838547      -65.119408
 H         -71.085747     -196.303818      -64.700256
 C         -73.943512     -195.139099      -65.971001
 C         -73.020515     -193.928635      -65.971512
 C         -74.464035     -195.708206      -67.219162
 C         -72.413589     -193.677002      -67.319557
 C         -74.326256     -194.916901      -68.487473
 C         -73.466492     -193.715729      -68.465317
 H         -72.300201     -193.967697      -65.254005
 H         -73.504532     -193.002884      -65.595062
 H         -73.972862     -196.761093      -67.333595
 H         -75.564056     -195.885056      -66.972946
 H         -71.701393     -194.467606      -67.500450
 H         -71.793373     -192.787811      -67.253532
 H         -75.338837     -194.584213      -68.855850
 H         -73.994736     -195.644180      -69.189316
 H         -72.797455     -193.536209      -69.406395
 H         -74.054619     -192.822662      -68.361084
