20
 generated by VMD
 C         -49.311565     -141.243103      -45.775726
 N         -48.646908     -141.551956      -44.828682
 H         -51.678268     -138.250946      -46.052094
 H         -50.011440     -141.007980      -46.552788
 C         -52.120834     -139.279663      -46.251225
 C         -52.804787     -139.447815      -47.777779
 C         -52.850151     -139.923904      -45.155266
 C         -53.260471     -140.836502      -48.061829
 C         -53.287819     -141.398178      -45.577957
 C         -54.127934     -141.329407      -46.853310
 H         -52.011921     -139.075043      -48.388592
 H         -53.647408     -138.791412      -47.967106
 H         -52.267803     -140.071960      -44.260818
 H         -53.760643     -139.399155      -44.908443
 H         -52.413143     -141.690414      -48.094753
 H         -53.710548     -140.750183      -49.062790
 H         -54.001804     -141.791840      -44.904213
 H         -52.382889     -141.982712      -45.817574
 H         -54.495636     -142.262436      -47.169155
 H         -54.999706     -140.737411      -46.568581
