20
 generated by VMD
 C         -59.757389     -157.459808      -56.545929
 N         -60.690945     -157.205948      -57.133602
 H         -59.776520     -157.325531      -53.212330
 H         -58.814846     -157.708984      -56.089684
 C         -59.164661     -157.942017      -52.556862
 C         -57.924957     -157.265167      -51.925503
 C         -59.415588     -159.385712      -52.755318
 C         -57.404377     -158.207352      -50.835903
 C         -58.915581     -160.142715      -51.489101
 C         -57.481892     -159.782318      -51.200268
 H         -58.172417     -156.213348      -51.437641
 H         -57.180901     -157.106247      -52.722530
 H         -60.466091     -159.669052      -52.767937
 H         -59.069183     -159.725571      -53.699268
 H         -58.059685     -158.055130      -49.990616
 H         -56.298252     -157.866852      -50.614521
 H         -58.865189     -161.232025      -51.824631
 H         -59.533165     -160.121918      -50.558365
 H         -56.997139     -160.335403      -50.425945
 H         -56.803024     -159.999954      -52.074837
