20
 generated by VMD
 C         -62.689770     -171.986343      -55.435059
 N         -62.319572     -173.071350      -55.252678
 H         -61.522430     -171.266037      -58.754623
 H         -62.980782     -170.973663      -55.728809
 C         -62.420849     -170.683914      -58.550568
 C         -62.396278     -169.415771      -57.876011
 C         -63.708771     -171.326965      -58.823715
 C         -63.604824     -168.525070      -57.966995
 C         -64.969276     -170.416046      -58.884869
 C         -64.964966     -169.171555      -57.924564
 H         -61.538803     -168.849380      -58.192837
 H         -62.275749     -169.504745      -56.732918
 H         -63.482018     -171.867386      -59.797874
 H         -64.042107     -172.115112      -58.051979
 H         -63.417671     -168.093216      -58.935608
 H         -63.507809     -167.840439      -57.205456
 H         -65.795395     -171.052048      -58.681320
 H         -64.983315     -169.986389      -59.867928
 H         -65.799919     -168.534119      -58.210751
 H         -65.208107     -169.581711      -56.833839
