20
 generated by VMD
 C         -67.906326     -178.230942      -57.904823
 N         -67.030739     -178.606155      -57.235695
 H         -65.029083     -176.285431      -58.723831
 H         -68.721886     -178.014465      -58.549435
 C         -64.849960     -175.605789      -59.592503
 C         -65.902184     -174.603745      -59.802929
 C         -63.380169     -175.374313      -60.137226
 C         -65.426338     -173.173035      -59.780636
 C         -62.967621     -173.856842      -59.977436
 C         -64.089882     -172.880844      -60.461544
 H         -66.648361     -174.583176      -58.981560
 H         -66.335739     -174.884552      -60.747154
 H         -62.722286     -175.990265      -59.513401
 H         -63.218693     -175.861771      -61.134972
 H         -65.328362     -172.768967      -58.741955
 H         -66.127907     -172.592865      -60.397804
 H         -62.086605     -173.735474      -60.595604
 H         -62.785480     -173.366043      -58.969261
 H         -63.833614     -171.791122      -60.339939
 H         -64.129784     -173.096054      -61.521545
