20
 generated by VMD
 C         -58.908112     -168.474808      -55.027157
 N         -57.767773     -168.754578      -54.914639
 H         -62.001804     -168.654526      -55.619503
 H         -59.936970     -168.112244      -54.967621
 C         -62.399746     -167.912766      -56.246841
 C         -62.690548     -168.040680      -57.773468
 C         -62.833645     -166.630142      -55.647091
 C         -64.139305     -167.547867      -58.124054
 C         -64.278656     -166.170441      -56.044914
 C         -64.489113     -166.217575      -57.518654
 H         -62.451908     -169.131027      -58.314625
 H         -62.013283     -167.365860      -58.256878
 H         -62.764374     -166.548981      -54.631172
 H         -62.240173     -165.937332      -56.234528
 H         -64.826500     -168.369522      -57.788540
 H         -64.161919     -167.481506      -59.244106
 H         -64.551270     -165.121796      -55.644493
 H         -65.009758     -166.902069      -55.380272
 H         -65.505020     -166.002594      -57.665607
 H         -63.895500     -165.510529      -58.038212
