20
 generated by VMD
 C         -50.588989     -129.173721      -44.010902
 N         -50.908859     -130.173950      -44.424519
 H         -49.162582     -128.149673      -41.000351
 H         -50.105927     -128.232834      -43.783710
 C         -48.091476     -128.426575      -41.140358
 C         -47.797859     -129.813049      -41.049957
 C         -47.018356     -127.417557      -40.844231
 C         -46.405544     -130.146622      -41.573845
 C         -45.701069     -127.764870      -41.397770
 C         -45.355450     -129.217484      -40.978424
 H         -48.528217     -130.356018      -41.559010
 H         -47.928829     -130.256088      -39.985706
 H         -47.330952     -126.466652      -41.481564
 H         -46.894527     -127.203331      -39.824348
 H         -46.350166     -130.027878      -42.673534
 H         -46.314545     -131.236816      -41.472748
 H         -44.846458     -127.117233      -41.075687
 H         -45.517391     -127.890198      -42.486534
 H         -44.334099     -129.567871      -41.283401
 H         -45.359333     -129.224472      -39.922905
