20
 generated by VMD
 C         -13.995278      -45.499382       -5.708189
 N         -14.384255      -45.459194       -6.743527
 H         -15.052770      -44.070133       -9.210412
 H         -14.436039      -44.054821      -10.775589
 C         -15.385014      -44.220104      -10.238463
 C         -16.451204      -43.255604      -10.550651
 C         -15.808627      -45.672867      -10.546886
 C         -16.941500      -43.426800      -11.969813
 C         -16.251699      -45.859367      -12.008013
 C         -17.345936      -44.856728      -12.335123
 H         -16.128740      -42.228451      -10.455258
 H         -17.274952      -43.296131       -9.788009
 H         -14.975969      -46.325119      -10.262437
 H         -16.615622      -46.080753       -9.951960
 H         -16.054356      -43.153522      -12.538149
 H         -17.701464      -42.668201      -12.185369
 H         -16.591827      -46.821758      -12.242512
 H         -15.411226      -45.605381      -12.690186
 H         -17.355923      -44.960938      -13.388545
 H         -18.297571      -45.092773      -11.888449
