20
 generated by VMD
 C         -20.343657      -56.323456      -16.752069
 N         -21.404547      -56.050835      -17.174681
 H         -22.913351      -58.821960      -16.692198
 H         -19.348427      -56.616280      -16.557293
 C         -22.206585      -59.376583      -16.065054
 C         -22.407228      -59.242786      -14.626917
 C         -21.711657      -60.793533      -16.560316
 C         -21.134653      -59.655529      -13.899249
 C         -20.757040      -61.581490      -15.603447
 C         -20.869337      -61.205898      -14.162621
 H         -23.313009      -59.698353      -14.332957
 H         -22.592165      -58.202015      -14.274901
 H         -22.592192      -61.466064      -16.775978
 H         -21.200651      -60.707855      -17.563280
 H         -21.426638      -59.601883      -12.855643
 H         -20.194328      -59.055279      -14.135715
 H         -19.679031      -61.586353      -15.921508
 H         -20.908667      -62.670395      -15.716283
 H         -21.579107      -61.729374      -13.551114
 H         -19.834730      -61.363998      -13.760900
