20
 generated by VMD
 C         -40.074757     -104.831581      -36.086884
 N         -39.469471     -104.458183      -37.025089
 H         -39.795300     -108.405350      -35.330811
 H         -40.556290     -105.024231      -35.159126
 C         -39.853027     -108.237137      -34.246628
 C         -38.836143     -107.295059      -33.743855
 C         -40.262280     -109.456779      -33.505451
 C         -39.066391     -107.148796      -32.177467
 C         -39.944019     -109.381477      -31.963873
 C         -38.818855     -108.423866      -31.584246
 H         -39.043697     -106.337486      -34.246265
 H         -37.860310     -107.793228      -33.922626
 H         -41.311432     -109.675232      -33.587242
 H         -39.730705     -110.309395      -33.972588
 H         -40.077126     -106.820152      -31.951324
 H         -38.504391     -106.376526      -31.752867
 H         -39.970196     -110.372787      -31.641546
 H         -40.880955     -108.929504      -31.522976
 H         -38.708439     -108.364227      -30.501682
 H         -37.868523     -108.853363      -31.962564
