20
 generated by VMD
 C         -52.074570     -146.235611      -44.038635
 N         -51.652042     -146.444885      -45.061935
 H         -53.422894     -145.267044      -46.785858
 H         -52.341732     -145.921310      -43.013412
 C         -53.855717     -144.865189      -47.746735
 C         -52.882439     -144.767120      -48.879345
 C         -54.866146     -143.832840      -47.594894
 C         -53.508713     -144.211227      -50.032269
 C         -55.378693     -143.124481      -48.832973
 C         -54.216038     -142.915833      -49.807484
 H         -52.577305     -145.803589      -49.080845
 H         -51.932465     -144.225159      -48.506695
 H         -55.653835     -144.292923      -46.961071
 H         -54.303265     -143.077591      -47.002556
 H         -54.138931     -145.052353      -50.552193
 H         -52.731598     -143.976501      -50.770809
 H         -55.936348     -142.263580      -48.496216
 H         -56.084515     -143.876617      -49.421349
 H         -54.591988     -142.401978      -50.679848
 H         -53.531956     -142.100403      -49.395691
