20
 generated by VMD
 C         -68.974747     -180.763031      -61.132607
 N         -69.902527     -181.029343      -60.466652
 H         -67.218864     -178.390106      -59.493671
 H         -68.051712     -180.559296      -61.735744
 C         -66.288734     -177.870346      -59.830292
 C         -65.841034     -177.868011      -61.207302
 C         -65.373161     -177.289322      -58.846733
 C         -65.004539     -176.635468      -61.692520
 C         -64.629036     -176.022171      -59.302032
 C         -63.866817     -176.399200      -60.703316
 H         -66.711723     -178.068878      -61.842545
 H         -65.228531     -178.761749      -61.339687
 H         -66.001801     -177.151505      -57.901352
 H         -64.603897     -178.037827      -58.651402
 H         -65.765465     -175.800858      -61.729301
 H         -64.697128     -176.903885      -62.740246
 H         -63.834839     -175.816956      -58.615494
 H         -65.379135     -175.205322      -59.348320
 H         -63.215286     -175.494812      -60.898067
 H         -63.250248     -177.273972      -60.560917
