20
 generated by VMD
 C         -31.059271      -75.526550      -23.382223
 N         -30.873013      -75.974442      -24.455887
 H         -29.447668      -78.633408      -21.909681
 H         -30.784357      -75.255730      -22.444901
 C         -28.374422      -78.375671      -21.816401
 C         -27.489902      -78.328117      -23.025991
 C         -27.848873      -77.871941      -20.536768
 C         -26.631052      -77.125603      -23.050425
 C         -26.739594      -76.750359      -20.570480
 C         -25.860064      -76.965195      -21.730667
 H         -28.094706      -78.248817      -23.982294
 H         -26.824467      -79.233414      -23.078680
 H         -28.605038      -77.481247      -19.868141
 H         -27.368546      -78.730942      -20.141016
 H         -27.248810      -76.235291      -23.194454
 H         -25.967472      -77.308174      -23.930464
 H         -26.304935      -76.551285      -19.621574
 H         -27.196144      -75.728020      -20.789761
 H         -25.144129      -76.207542      -21.857107
 H         -25.452105      -77.977333      -21.622215
