20
 generated by VMD
 C         -44.195568     -121.833275      -35.894695
 N         -43.838730     -120.745491      -35.828617
 H         -44.987297     -122.606422      -39.643753
 H         -44.734779     -122.762009      -35.904091
 C         -44.782719     -121.544342      -39.554150
 C         -43.450428     -121.022545      -39.630085
 C         -45.888821     -120.665970      -39.064457
 C         -43.282173     -119.544304      -40.190498
 C         -45.757114     -119.191513      -39.557178
 C         -44.287991     -118.707893      -39.396297
 H         -42.866405     -121.673615      -40.387043
 H         -42.948368     -121.011299      -38.659954
 H         -46.765499     -121.128639      -39.520714
 H         -46.052044     -120.634674      -37.988415
 H         -43.631638     -119.586479      -41.213612
 H         -42.239449     -119.347000      -40.053364
 H         -46.400387     -118.756020      -38.895748
 H         -46.081596     -119.125046      -40.623859
 H         -44.204071     -117.715614      -39.917465
 H         -43.963516     -118.576118      -38.331329
