20
 generated by VMD
 C         -67.428688     -189.586929      -66.578651
 N         -66.312248     -189.803879      -66.840698
 H         -70.170883     -190.554016      -65.770309
 H         -68.488571     -189.615814      -66.386185
 C         -70.859253     -190.189117      -65.063927
 C         -72.114853     -190.958282      -64.650360
 C         -70.283653     -188.975739      -64.208946
 C         -73.150337     -190.020538      -63.905819
 C         -71.609253     -188.130966      -63.993809
 C         -72.614922     -188.898346      -63.161163
 H         -71.865730     -191.733200      -64.007057
 H         -72.545982     -191.340729      -65.589920
 H         -69.861862     -189.329178      -63.272297
 H         -69.641403     -188.271454      -64.906990
 H         -73.759331     -190.653229      -63.258327
 H         -73.854462     -189.572464      -64.623230
 H         -72.027672     -187.889832      -65.020210
 H         -71.298576     -187.148834      -63.483154
 H         -72.282082     -189.086411      -62.219101
 H         -73.538345     -188.285706      -62.844830
