20
 generated by VMD
 C         -50.906269     -129.309555      -45.144241
 N         -50.945930     -130.064728      -44.212624
 H         -49.174202     -128.468338      -41.798298
 H         -50.747032     -128.860855      -46.118191
 C         -48.214149     -128.755783      -41.193607
 C         -47.862782     -130.127197      -40.944305
 C         -47.186012     -127.767998      -40.943035
 C         -46.447067     -130.479172      -41.503983
 C         -45.747353     -128.107376      -41.326500
 C         -45.349236     -129.574783      -40.902264
 H         -48.454697     -130.813171      -41.393459
 H         -47.781971     -130.296875      -39.833084
 H         -47.453896     -126.745262      -41.446297
 H         -47.226711     -127.490662      -39.914227
 H         -46.428585     -130.430923      -42.599602
 H         -46.285999     -131.585968      -41.342159
 H         -44.996204     -127.545364      -40.739174
 H         -45.456776     -128.151993      -42.430500
 H         -44.322388     -129.727982      -41.249424
 H         -45.509964     -129.584244      -39.818142
