20
 generated by VMD
 C         -19.816437      -57.533127      -16.921618
 N         -19.215841      -57.994785      -17.756931
 H         -22.587360      -59.795410      -17.321213
 H         -20.243151      -57.025764      -15.968991
 C         -22.687254      -60.456139      -16.457993
 C         -23.983744      -61.248699      -16.221369
 C         -21.438271      -60.938999      -15.826883
 C         -23.598827      -62.743011      -16.189024
 C         -21.478832      -62.283051      -15.022218
 C         -22.893515      -62.799549      -14.870540
 H         -24.612955      -61.070446      -17.162117
 H         -24.561684      -60.884644      -15.308638
 H         -20.551062      -60.786610      -16.475216
 H         -21.243517      -60.238773      -14.994680
 H         -22.948269      -63.039551      -17.064322
 H         -24.445669      -63.451759      -16.226776
 H         -21.133190      -62.095531      -13.987496
 H         -20.844793      -62.979309      -15.612970
 H         -22.847269      -63.818100      -14.434607
 H         -23.355049      -62.134869      -14.113123
