20
 generated by VMD
 C         -13.273311      -28.166027       -3.766947
 N         -13.978715      -27.429359       -4.238183
 H         -10.504285      -28.973591       -2.632965
 H         -10.125000      -27.576368       -3.771281
 C          -9.738395      -28.476124       -3.279430
 C          -9.246967      -29.451468       -4.316748
 C          -8.599818      -27.916370       -2.424439
 C          -8.111379      -28.894308       -5.150879
 C          -7.408972      -27.322607       -3.180747
 C          -6.992173      -28.228668       -4.426013
 H         -10.067518      -29.792913       -5.018361
 H          -8.865423      -30.296431       -3.784444
 H          -8.999652      -27.140068       -1.774338
 H          -8.247575      -28.825403       -1.910080
 H          -8.649012      -28.161392       -5.786213
 H          -7.720880      -29.638794       -5.867428
 H          -6.573148      -27.103573       -2.449333
 H          -7.740452      -26.409620       -3.625224
 H          -6.304475      -27.658365       -4.997486
 H          -6.338595      -29.013145       -4.004790
