20
 generated by VMD
 C         -41.042240     -102.263512      -34.804485
 N         -41.489693     -101.981430      -35.818253
 H         -39.672638     -104.680267      -32.179115
 H         -40.784706     -102.545975      -33.823135
 C         -38.638290     -104.652870      -31.946619
 C         -37.676350     -104.004311      -32.791214
 C         -38.279564     -105.729172      -30.949492
 C         -36.429131     -103.528908      -32.087212
 C         -36.977650     -105.396111      -30.312220
 C         -35.855209     -104.896782      -31.428934
 H         -38.099586     -103.099915      -33.372948
 H         -37.454552     -104.806976      -33.479294
 H         -39.058468     -105.630692      -30.109045
 H         -38.403316     -106.618973      -31.437317
 H         -36.710125     -102.815193      -31.351828
 H         -35.667191     -103.125114      -32.734505
 H         -36.566788     -106.238182      -29.749054
 H         -36.956226     -104.580391      -29.584377
 H         -34.920937     -104.711502      -30.932842
 H         -35.794525     -105.714172      -32.171696
