20
 generated by VMD
 C         -40.460564      -99.842842      -29.237341
 N         -39.763981     -100.129860      -28.365919
 H         -37.409492      -99.402252      -30.539412
 H         -40.925781      -99.382111      -30.032558
 C         -36.353741      -99.024712      -30.764271
 C         -35.885582      -99.043762      -32.214928
 C         -35.422668      -98.716896      -29.524681
 C         -34.678822      -98.122681      -32.533428
 C         -34.316208      -97.790428      -29.999668
 C         -33.681660      -98.104752      -31.343979
 H         -36.779835      -98.806488      -32.861591
 H         -35.556221     -100.050873      -32.509590
 H         -36.039791      -98.159729      -28.785383
 H         -35.115108      -99.657211      -28.967533
 H         -35.011955      -97.079689      -32.441399
 H         -34.202644      -98.147751      -33.489250
 H         -33.658878      -97.649200      -29.171398
 H         -34.612732      -96.759949      -30.146839
 H         -32.902493      -97.369011      -31.414877
 H         -33.133083      -99.083313      -31.282373
