20
 generated by VMD
 C         -30.786682      -78.079086      -25.224783
 N         -31.535744      -77.239227      -25.127466
 H         -29.406950      -77.072960      -22.746641
 H         -29.998629      -78.929131      -25.107569
 C         -28.776497      -77.958260      -22.578043
 C         -27.411474      -78.033546      -23.212732
 C         -29.317133      -79.110718      -21.768293
 C         -26.489122      -78.988106      -22.514227
 C         -28.205315      -79.861160      -21.028566
 C         -27.160980      -80.199203      -22.017136
 H         -26.949232      -77.037231      -23.050619
 H         -27.517380      -78.341125      -24.251356
 H         -29.959021      -78.691742      -20.929140
 H         -29.817228      -79.873459      -22.425333
 H         -25.924145      -78.524399      -21.709431
 H         -25.644655      -79.191757      -23.220573
 H         -28.566099      -80.674263      -20.458773
 H         -27.782793      -79.268898      -20.155228
 H         -26.457928      -80.771126      -21.476349
 H         -27.511358      -80.909027      -22.789896
