20
 generated by VMD
 C         -21.126415      -52.230286       -9.651987
 N         -21.362669      -52.576187      -10.743608
 H         -19.502060      -50.184017      -12.195468
 H         -20.791546      -51.934662       -8.846114
 C         -18.410849      -50.251461      -12.324786
 C         -17.919107      -51.590801      -12.800551
 C         -17.474684      -49.040237      -12.393149
 C         -16.951540      -51.352955      -13.937563
 C         -16.296545      -49.021519      -13.319180
 C         -15.750143      -50.415043      -13.650803
 H         -18.739550      -52.224384      -13.133223
 H         -17.367592      -51.987881      -11.909050
 H         -18.072838      -48.136967      -12.559323
 H         -17.167677      -48.840557      -11.339186
 H         -17.491844      -50.891510      -14.812738
 H         -16.592381      -52.304920      -14.337655
 H         -15.529601      -48.512329      -12.759179
 H         -16.464647      -48.430294      -14.247372
 H         -14.990281      -50.367832      -14.424760
 H         -15.309235      -50.729115      -12.697670
