20
 generated by VMD
 C         -38.702938     -113.738312      -35.623360
 N         -37.953983     -114.629913      -35.725163
 H         -41.248207     -114.524994      -35.947990
 H         -39.208332     -112.825417      -35.772232
 C         -42.236217     -114.507202      -36.316025
 C         -42.491692     -114.608910      -37.791489
 C         -43.456306     -114.325401      -35.381344
 C         -43.700710     -115.465057      -38.164623
 C         -44.611259     -115.343216      -35.757217
 C         -44.900761     -115.223625      -37.274776
 H         -41.607971     -115.008827      -38.141586
 H         -42.617771     -113.617714      -38.092896
 H         -43.285721     -114.416588      -34.355942
 H         -43.916428     -113.375488      -35.505466
 H         -43.538090     -116.549736      -38.185253
 H         -43.946804     -115.169586      -39.243355
 H         -45.498714     -115.061813      -35.238403
 H         -44.397655     -116.353065      -35.609142
 H         -45.655643     -115.943626      -37.478451
 H         -45.241486     -114.183990      -37.476749
