20
 generated by VMD
 C         -13.161684      -30.310432       -8.309381
 N         -13.806542      -30.310186       -9.224051
 H         -10.885279      -31.162045       -5.225687
 H         -10.962396      -31.807755       -3.599705
 C         -10.871994      -32.031811       -4.608562
 C          -9.419364      -32.661777       -4.802782
 C         -12.013026      -32.992317       -5.028389
 C          -9.342422      -33.989986       -4.051059
 C         -11.733174      -34.297989       -4.208456
 C         -10.355734      -34.930691       -4.575852
 H          -8.641738      -32.073704       -4.416773
 H          -9.193346      -32.894146       -5.853071
 H         -13.004706      -32.566574       -4.722455
 H         -11.990334      -33.205662       -6.132189
 H          -9.439847      -33.922211       -2.931353
 H          -8.316774      -34.409569       -4.247127
 H         -12.618691      -34.987156       -4.432203
 H         -11.769521      -34.079056       -3.163021
 H         -10.224330      -35.924973       -4.031718
 H         -10.250673      -35.056850       -5.652814
