20
 generated by VMD
 C         -36.758732      -97.862717      -26.510254
 N         -35.914783      -98.293640      -25.878168
 H         -36.267647      -95.283585      -28.428015
 H         -37.465912      -97.426712      -27.328760
 C         -35.452820      -95.282173      -29.120564
 C         -35.670609      -96.208511      -30.367430
 C         -34.210609      -94.506042      -29.017355
 C         -35.287758      -95.539139      -31.663517
 C         -33.843430      -93.890709      -30.380970
 C         -33.981785      -94.818802      -31.651278
 H         -36.777607      -96.376060      -30.371458
 H         -35.218193      -97.246284      -30.169098
 H         -34.252201      -93.659523      -28.354004
 H         -33.405102      -95.223419      -28.725245
 H         -36.066662      -94.813721      -31.867317
 H         -35.322212      -96.291885      -32.521019
 H         -32.994854      -93.230774      -30.324499
 H         -34.731606      -93.147942      -30.525154
 H         -33.967030      -94.217743      -32.467609
 H         -33.090847      -95.588081      -31.617283
