20
 generated by VMD
 C          -5.748965      -21.190727        1.554599
 N          -5.659252      -21.339363        2.667839
 H          -4.986710      -18.504389       -1.192814
 H          -5.538877      -19.927334       -0.134400
 C          -5.731071      -19.297813       -1.110418
 C          -5.544766      -20.152721       -2.355901
 C          -7.142454      -18.709776       -1.045520
 C          -6.603559      -21.252934       -2.565410
 C          -8.174460      -19.765568       -1.180887
 C          -8.051227      -20.719366       -2.411432
 H          -4.530407      -20.639139       -2.331972
 H          -5.618538      -19.502892       -3.223085
 H          -7.291539      -18.049362       -0.194323
 H          -7.234237      -18.008701       -1.808589
 H          -6.337244      -21.931501       -1.732838
 H          -6.434449      -21.843813       -3.523837
 H          -9.197012      -19.318863       -1.130628
 H          -8.157429      -20.402349       -0.298813
 H          -8.732506      -21.519215       -2.199208
 H          -8.328757      -20.233603       -3.337354
