20
 generated by VMD
 C         -58.586575     -162.012589      -56.470081
 N         -57.511665     -161.517105      -56.288593
 H         -59.344162     -164.738358      -55.443573
 H         -59.550541     -162.531097      -56.613281
 C         -60.233044     -164.130630      -55.009209
 C         -59.973164     -163.643402      -53.521957
 C         -61.710705     -164.444351      -55.382812
 C         -61.096493     -162.739166      -53.067280
 C         -62.708210     -163.250595      -55.118385
 C         -62.582779     -162.964844      -53.574223
 H         -59.013596     -163.097000      -53.504467
 H         -60.003319     -164.589371      -52.795948
 H         -61.702682     -164.563217      -56.435982
 H         -62.053741     -165.431564      -54.927639
 H         -61.000767     -161.686661      -53.467728
 H         -61.161232     -162.599030      -51.989529
 H         -63.622101     -163.604553      -55.328609
 H         -62.302406     -162.407227      -55.686588
 H         -63.329796     -162.150330      -53.355396
 H         -63.045692     -163.826752      -53.083092
