20
 generated by VMD
 C         -23.074162      -53.521584      -13.687960
 N         -23.520958      -52.764977      -14.392058
 H         -20.487051      -54.883492      -14.582433
 H         -22.429840      -54.133926      -12.930945
 C         -19.702061      -54.919399      -13.989408
 C         -19.189867      -53.547199      -13.753415
 C         -18.688089      -56.008385      -14.288501
 C         -17.812984      -53.557758      -12.937658
 C         -17.433712      -56.049259      -13.407910
 C         -16.811939      -54.635345      -13.358070
 H         -19.990862      -53.006023      -13.226151
 H         -18.919027      -53.098766      -14.761892
 H         -19.174904      -57.043793      -14.268833
 H         -18.267935      -55.922215      -15.291172
 H         -18.110384      -53.619892      -11.868045
 H         -17.356117      -52.580574      -13.129942
 H         -16.764982      -56.844639      -13.819626
 H         -17.649891      -56.420376      -12.391918
 H         -16.018423      -54.630413      -12.609202
 H         -16.497847      -54.387993      -14.331549
