20
 generated by VMD
 C         -70.295502     -183.522949      -66.243507
 N         -69.193352     -183.281464      -66.059212
 H         -68.762062     -184.753769      -63.260059
 H         -71.373123     -183.820633      -66.394516
 C         -68.282410     -184.329926      -62.395275
 C         -68.535164     -184.829498      -60.990700
 C         -68.004486     -182.820862      -62.611221
 C         -67.595306     -184.140732      -59.954117
 C         -67.006218     -182.291962      -61.636806
 C         -67.432602     -182.629135      -60.203362
 H         -68.373947     -185.879852      -61.156254
 H         -69.535545     -184.561020      -60.704903
 H         -67.570969     -182.777115      -63.620975
 H         -68.839355     -182.165421      -62.490898
 H         -66.661835     -184.616913      -60.094120
 H         -68.005501     -184.449417      -59.001751
 H         -66.847687     -181.174103      -61.906517
 H         -66.074745     -182.918961      -61.632164
 H         -66.631973     -182.411285      -59.583912
 H         -68.258263     -182.037277      -59.962479
