20
 generated by VMD
 C         -56.288475     -149.978607      -46.637890
 N         -56.920483     -150.530365      -45.815975
 H         -53.242306     -147.867432      -47.674965
 H         -55.828583     -149.291077      -47.392651
 C         -53.660553     -147.419235      -48.563049
 C         -52.962910     -147.808182      -49.905098
 C         -54.598053     -146.236923      -48.506718
 C         -53.883068     -147.715042      -51.102230
 C         -55.410221     -145.917465      -49.854710
 C         -54.444584     -146.228165      -51.131599
 H         -52.585888     -148.885605      -49.679977
 H         -52.248447     -147.086563      -50.064568
 H         -55.405308     -146.356949      -47.743744
 H         -53.967648     -145.389557      -48.441715
 H         -54.739315     -148.402283      -50.885464
 H         -53.394531     -148.003555      -52.085621
 H         -55.812878     -144.912079      -49.972645
 H         -56.329376     -146.587280      -49.798397
 H         -54.980648     -146.282196      -52.082928
 H         -53.654701     -145.500748      -51.121338
