20
 generated by VMD
 C         -49.960594     -143.261719      -44.641247
 N         -49.174252     -143.431351      -45.464489
 H         -52.007519     -140.632950      -45.675541
 H         -50.664658     -143.202255      -43.860996
 C         -52.670452     -141.202164      -46.359074
 C         -52.039856     -141.481720      -47.664974
 C         -54.208790     -141.077194      -46.128582
 C         -53.103374     -142.196899      -48.646126
 C         -55.005745     -141.851395      -47.038754
 C         -54.475643     -141.651794      -48.446598
 H         -51.098850     -142.011230      -47.676647
 H         -51.817863     -140.494171      -48.238457
 H         -54.456196     -141.306091      -45.078548
 H         -54.362717     -139.984161      -46.261234
 H         -53.173843     -143.373154      -48.407467
 H         -52.662781     -142.139282      -49.697029
 H         -56.040924     -141.633301      -47.238731
 H         -54.954895     -142.897522      -46.606525
 H         -55.247047     -142.152176      -49.112865
 H         -54.578308     -140.554840      -48.743046
