20
 generated by VMD
 C         -19.926098      -50.097816       -9.405647
 N         -19.706604      -51.209751       -9.674352
 H         -16.849543      -48.504505      -10.063808
 H         -20.265928      -48.860447       -9.490086
 C         -16.542677      -48.278503      -11.033115
 C         -15.595809      -49.166409      -11.753858
 C         -17.486879      -47.488586      -11.959973
 C         -16.317331      -50.019676      -12.780129
 C         -17.856894      -48.143742      -13.315198
 C         -16.753120      -48.994804      -13.868556
 H         -15.136954      -49.875431      -11.041532
 H         -14.734561      -48.588913      -12.092780
 H         -18.325974      -47.123638      -11.406273
 H         -16.909817      -46.609818      -12.160665
 H         -17.166954      -50.604935      -12.345348
 H         -15.605255      -50.766220      -13.197867
 H         -18.130768      -47.346706      -14.085857
 H         -18.736452      -48.721390      -13.218906
 H         -17.124640      -49.484386      -14.811385
 H         -15.796410      -48.415272      -14.107437
