20
 generated by VMD
 C         -50.031036     -144.353592      -44.362423
 N         -49.300461     -143.804123      -45.041965
 H         -52.342861     -142.507263      -45.680038
 H         -50.709633     -144.711121      -43.654057
 C         -52.917439     -142.066742      -46.509483
 C         -52.285606     -141.980621      -47.876328
 C         -54.363384     -141.506454      -46.505020
 C         -53.295479     -142.452286      -48.992641
 C         -55.206726     -141.967621      -47.572037
 C         -54.650982     -141.794922      -48.941944
 H         -51.368858     -142.699310      -48.047783
 H         -51.979366     -140.907822      -47.937252
 H         -54.753059     -141.793274      -45.473358
 H         -54.304134     -140.377808      -46.507565
 H         -53.316414     -143.507843      -48.807663
 H         -52.998333     -142.361130      -50.013729
 H         -56.097843     -141.280930      -47.432644
 H         -55.681030     -142.941269      -47.528030
 H         -55.313339     -142.339462      -49.635666
 H         -54.579281     -140.740982      -49.331654
