20
 generated by VMD
 C         -60.164982     -171.274933      -55.289875
 N         -59.367111     -172.119904      -55.004070
 H         -63.212551     -170.193878      -55.992992
 H         -60.856632     -170.515778      -55.638474
 C         -63.386238     -169.505829      -56.862301
 C         -62.521000     -168.506897      -57.482231
 C         -64.792252     -169.107422      -56.726685
 C         -63.016956     -167.923630      -58.753361
 C         -65.357460     -168.565399      -58.013023
 C         -64.511070     -167.348846      -58.653625
 H         -61.478630     -169.073120      -57.692696
 H         -62.282360     -167.780487      -56.739147
 H         -65.287796     -170.043564      -56.390888
 H         -64.792168     -168.582535      -55.810936
 H         -63.091938     -168.669220      -59.599560
 H         -62.258896     -167.100418      -59.108494
 H         -66.375984     -168.347946      -57.887672
 H         -65.440498     -169.363525      -58.713181
 H         -64.801750     -166.991776      -59.648445
 H         -64.555336     -166.436584      -58.012939
