20
 generated by VMD
 C         -73.743820     -200.382553      -65.734879
 N         -73.380257     -201.068970      -64.861176
 H         -72.091057     -197.273788      -66.695480
 H         -74.010208     -199.563217      -66.325546
 C         -72.672058     -196.824356      -67.521004
 C         -73.630249     -195.754547      -67.203140
 C         -72.555519     -197.464844      -68.876900
 C         -74.114853     -195.003082      -68.478790
 C         -73.834778     -197.357559      -69.714714
 C         -74.542099     -195.998718      -69.512794
 H         -73.223763     -195.028168      -66.435127
 H         -74.463799     -196.193222      -66.616684
 H         -71.735641     -196.952560      -69.339577
 H         -72.181458     -198.426544      -68.718826
 H         -73.239052     -194.486008      -68.881653
 H         -74.886398     -194.242035      -68.184319
 H         -74.480164     -198.085068      -69.168709
 H         -73.781105     -197.677948      -70.714165
 H         -74.537933     -195.582581      -70.644745
 H         -75.689545     -196.285904      -69.417160
