20
 generated by VMD
 C         -58.980549     -152.560043      -50.759609
 N         -60.046738     -152.975006      -50.462299
 H         -56.805786     -151.559738      -48.482166
 H         -57.996574     -152.319061      -51.067154
 C         -56.158367     -151.257401      -49.314415
 C         -55.322601     -152.320633      -50.041939
 C         -55.842464     -149.708008      -49.450378
 C         -54.544552     -151.880005      -51.237576
 C         -54.735630     -149.447266      -50.535297
 C         -53.770355     -150.624512      -50.863094
 H         -55.931286     -153.298996      -50.219784
 H         -54.562176     -152.596390      -49.324295
 H         -56.751591     -149.212296      -49.834274
 H         -55.479561     -149.231110      -48.492706
 H         -55.148621     -151.738815      -52.110107
 H         -53.818062     -152.682404      -51.571743
 H         -54.354233     -148.490753      -50.341198
 H         -55.204773     -149.520798      -51.597565
 H         -53.085739     -150.311691      -51.661221
 H         -52.979473     -150.642746      -50.045052
