20
 generated by VMD
 C         -66.795387     -177.886368      -57.019249
 N         -67.821083     -178.389542      -56.855183
 H         -64.252754     -176.068542      -59.283268
 H         -65.826683     -177.402359      -57.026649
 C         -64.294052     -175.083298      -59.608505
 C         -65.497955     -174.289001      -59.425499
 C         -63.143250     -174.560028      -60.446800
 C         -65.183624     -172.862152      -59.230793
 C         -62.978546     -173.000381      -60.426857
 C         -64.369247     -172.346832      -60.373093
 H         -66.179245     -174.662567      -58.603477
 H         -66.123520     -174.405380      -60.298824
 H         -62.118458     -174.904892      -60.136742
 H         -63.206696     -174.646820      -61.501057
 H         -64.864250     -172.524292      -58.274799
 H         -66.161369     -172.401886      -59.292530
 H         -62.206451     -172.776917      -61.157112
 H         -62.528290     -172.730484      -59.421669
 H         -64.295807     -171.299515      -60.293018
 H         -64.869690     -172.549667      -61.366959
