20
 generated by VMD
 C         -79.686455     -205.541962      -72.409752
 N         -80.121284     -206.628632      -72.402374
 H         -77.608070     -204.749603      -70.786880
 H         -79.023491     -204.633865      -72.519958
 C         -76.671677     -205.117096      -71.180923
 C         -75.520523     -204.184357      -71.252762
 C         -76.342796     -206.422104      -70.527740
 C         -74.674240     -204.050629      -70.098801
 C         -75.634033     -206.192474      -69.254402
 C         -74.353828     -205.403763      -69.295677
 H         -75.819290     -203.185089      -71.583107
 H         -74.863487     -204.559555      -72.085930
 H         -77.223175     -207.079514      -70.396492
 H         -75.561150     -207.040131      -71.038002
 H         -75.228241     -203.370193      -69.473259
 H         -73.672646     -203.701843      -70.368767
 H         -75.366676     -207.087570      -68.728981
 H         -76.487976     -205.777130      -68.539726
 H         -74.141212     -205.211975      -68.271538
 H         -73.447624     -205.886414      -69.736366
