20
 generated by VMD
 C         -43.613930     -121.240250      -36.177025
 N         -43.655422     -120.553200      -35.254940
 H         -44.805805     -122.379807      -39.139088
 H         -43.858974     -122.000916      -36.946468
 C         -44.739780     -121.363472      -39.390160
 C         -43.425270     -120.813972      -39.702583
 C         -45.761944     -120.482018      -38.884815
 C         -43.448090     -119.319855      -40.175529
 C         -45.776581     -119.065392      -39.452644
 C         -44.325855     -118.440819      -39.298820
 H         -42.930798     -121.430489      -40.458160
 H         -42.743523     -120.951012      -38.874924
 H         -46.816746     -120.899368      -38.984760
 H         -45.598885     -120.446159      -37.763973
 H         -43.715111     -119.294334      -41.259804
 H         -42.361477     -118.896500      -40.224174
 H         -46.569515     -118.305099      -38.959011
 H         -46.146122     -119.175980      -40.558189
 H         -44.318211     -117.504372      -39.812790
 H         -43.902725     -118.460014      -38.342968
