20
 generated by VMD
 C         -58.524570     -161.472687      -56.253815
 N         -58.306385     -160.334885      -56.322151
 H         -59.627140     -164.826157      -55.288616
 H         -58.762138     -162.515594      -56.151657
 C         -60.315510     -164.294312      -54.690353
 C         -59.641254     -163.554443      -53.549767
 C         -61.783112     -164.308853      -54.837479
 C         -60.405575     -162.207291      -53.234867
 C         -62.358082     -162.916000      -54.828915
 C         -61.906448     -162.335236      -53.482227
 H         -58.582058     -163.266937      -53.670876
 H         -59.882385     -164.278885      -52.682507
 H         -62.065243     -164.818649      -55.711384
 H         -62.206329     -164.910004      -53.977989
 H         -59.918999     -161.491287      -53.876774
 H         -60.128113     -161.823944      -52.313557
 H         -63.413212     -162.973709      -54.768040
 H         -61.990788     -162.335556      -55.612637
 H         -62.271568     -161.286835      -53.439602
 H         -62.398315     -162.735886      -52.626236
