20
 generated by VMD
 C         -31.310791      -78.249512      -26.340359
 N         -31.577526      -77.937317      -27.433470
 H         -29.264273      -79.709663      -24.524324
 H         -30.930714      -78.559441      -25.443192
 C         -29.066839      -80.308235      -23.560095
 C         -27.674103      -80.177422      -23.062609
 C         -30.063574      -81.218536      -22.989599
 C         -27.307812      -80.986092      -21.795399
 C         -29.635370      -81.937607      -21.732964
 C         -28.119240      -82.225494      -21.745762
 H         -27.376667      -79.222610      -22.798908
 H         -27.094973      -80.589745      -23.872103
 H         -30.974628      -80.731621      -22.818367
 H         -30.149403      -81.865700      -23.950050
 H         -27.280046      -80.352219      -20.931000
 H         -26.213657      -81.264999      -21.970587
 H         -30.174238      -82.948616      -21.642166
 H         -30.051582      -81.263237      -20.985765
 H         -27.995228      -82.646278      -20.763624
 H         -27.782772      -82.942703      -22.436560
