20
 generated by VMD
 C         -20.875401      -56.563854      -16.986540
 N         -21.224253      -55.622204      -17.557987
 H         -22.501200      -58.426147      -16.472326
 H         -20.763929      -57.198288      -16.018076
 C         -22.107843      -59.142178      -15.749875
 C         -22.074900      -59.041264      -14.267617
 C         -21.710434      -60.433056      -16.371895
 C         -21.027008      -59.874763      -13.666172
 C         -20.519451      -61.097309      -15.643442
 C         -20.834488      -61.274311      -14.227030
 H         -23.012638      -59.375622      -13.738815
 H         -21.978506      -57.999485      -13.996206
 H         -22.570412      -61.070915      -16.258490
 H         -21.428158      -60.316086      -17.392044
 H         -21.158865      -60.019508      -12.554474
 H         -20.088230      -59.316181      -13.588655
 H         -19.630905      -60.506092      -15.736088
 H         -20.180643      -62.030266      -16.046932
 H         -21.792645      -61.802876      -14.074018
 H         -20.048590      -61.777275      -13.685489
