20
 generated by VMD
 C         -77.493858     -203.128479      -68.419029
 N         -77.695015     -204.063736      -67.813759
 H         -74.556175     -201.296265      -67.241463
 H         -77.271423     -202.178452      -68.919006
 C         -74.245934     -200.768570      -68.118660
 C         -75.106834     -199.576965      -68.631744
 C         -73.978699     -201.723480      -69.223236
 C         -74.332123     -198.811081      -69.715965
 C         -73.064758     -201.071518      -70.175743
 C         -73.737541     -199.723541      -70.757309
 H         -75.454208     -198.929199      -67.872482
 H         -76.043175     -200.005692      -69.018913
 H         -73.472633     -202.526779      -68.690887
 H         -74.929588     -202.053650      -69.661629
 H         -73.412361     -198.200043      -69.343987
 H         -74.961838     -198.057587      -70.252243
 H         -72.770332     -201.651245      -71.066971
 H         -72.073471     -200.775299      -69.674294
 H         -73.019409     -199.172043      -71.304390
 H         -74.513863     -199.932526      -71.546471
