20
 generated by VMD
 C         -25.710405      -71.587021      -16.899115
 N         -26.497515      -72.347725      -16.528488
 H         -24.284286      -69.293327      -18.627949
 H         -24.841228      -70.943497      -17.294170
 C         -24.691547      -69.514740      -19.604168
 C         -24.023985      -70.611618      -20.415789
 C         -25.811028      -68.663483      -20.338903
 C         -25.033573      -71.398239      -21.149256
 C         -26.905880      -69.541199      -21.262264
 C         -26.022461      -70.500084      -22.086117
 H         -23.467754      -71.389557      -19.784546
 H         -23.290876      -69.996658      -21.048994
 H         -26.390930      -68.055984      -19.639872
 H         -25.253736      -67.976501      -21.114126
 H         -25.732491      -71.986282      -20.443783
 H         -24.520197      -72.172424      -21.715712
 H         -27.543758      -68.822182      -21.863234
 H         -27.478199      -70.185654      -20.500828
 H         -26.687187      -71.149017      -22.620321
 H         -25.334637      -69.935875      -22.702457
