20
 generated by VMD
 C         -59.704258     -157.367920      -56.799366
 N         -60.834923     -157.038055      -57.059536
 H         -59.629749     -157.154907      -53.304882
 H         -58.641243     -157.654877      -56.697277
 C         -59.189075     -157.825623      -52.567360
 C         -57.962223     -157.281387      -51.928066
 C         -59.460815     -159.348267      -52.538063
 C         -57.344082     -158.130707      -50.719376
 C         -58.706284     -160.107819      -51.445892
 C         -57.307167     -159.576920      -51.112270
 H         -58.054058     -156.320496      -51.647316
 H         -57.142399     -157.376526      -52.611271
 H         -60.579037     -159.292709      -52.542740
 H         -59.228550     -159.870941      -53.470634
 H         -58.084934     -158.127563      -49.929638
 H         -56.373970     -157.803360      -50.509312
 H         -58.636528     -161.127884      -51.719395
 H         -59.267742     -160.052612      -50.554756
 H         -56.788773     -160.277603      -50.331291
 H         -56.705444     -159.735382      -51.940514
