20
 generated by VMD
 C         -40.368259     -118.531189      -35.048496
 N         -39.426155     -117.824539      -35.024265
 H         -43.123669     -116.926666      -36.159481
 H         -40.943520     -119.422485      -34.982353
 C         -43.599743     -116.876770      -37.111832
 C         -42.843845     -117.126228      -38.412014
 C         -44.913738     -116.147865      -37.278629
 C         -43.778309     -117.884834      -39.385849
 C         -45.880981     -117.015648      -38.055508
 C         -45.200581     -117.279503      -39.475044
 H         -41.983631     -117.768097      -38.341770
 H         -42.558651     -116.183357      -38.840897
 H         -45.240841     -115.895653      -36.209923
 H         -44.822372     -115.122116      -37.824535
 H         -43.910564     -118.932251      -38.995575
 H         -43.463703     -117.907112      -40.473694
 H         -46.843838     -116.491623      -38.018829
 H         -45.983002     -118.033440      -37.588840
 H         -45.930092     -117.898689      -40.016617
 H         -45.140064     -116.160759      -39.966644
