20
 generated by VMD
 C         -19.661083      -60.622192      -17.161018
 N         -19.365459      -60.730011      -16.063913
 H         -23.062307      -61.285557      -17.751652
 H         -20.067190      -60.726227      -18.241886
 C         -23.118174      -62.394104      -17.601238
 C         -23.950592      -63.207310      -18.486340
 C         -23.111357      -62.712757      -16.109400
 C         -24.444323      -64.548599      -17.976345
 C         -23.273901      -64.135948      -15.719076
 C         -24.496593      -64.710754      -16.452328
 H         -23.315033      -63.392647      -19.350895
 H         -24.779093      -62.584240      -18.689411
 H         -22.122831      -62.340336      -15.675132
 H         -23.920073      -62.186306      -15.644562
 H         -23.774662      -65.410645      -18.325058
 H         -25.421309      -64.868393      -18.356056
 H         -23.397051      -64.237457      -14.655495
 H         -22.437721      -64.623703      -16.141308
 H         -24.359968      -65.842041      -16.259663
 H         -25.499792      -64.529152      -15.998745
