20
 generated by VMD
 C         -14.300251      -45.477795       -5.985074
 N         -14.485164      -45.816292       -7.026890
 H         -15.333067      -44.187454       -9.069911
 H         -14.490851      -44.143303      -10.633119
 C         -15.466328      -44.265472      -10.173842
 C         -16.484032      -43.223335      -10.550144
 C         -15.828252      -45.715984      -10.471178
 C         -16.758242      -43.566139      -12.030676
 C         -16.279236      -46.014732      -11.904989
 C         -17.296963      -44.983841      -12.315386
 H         -16.143848      -42.168690      -10.479821
 H         -17.372990      -43.322464       -9.959232
 H         -14.927563      -46.321892      -10.207918
 H         -16.685835      -46.047054       -9.849587
 H         -15.833181      -43.304775      -12.597470
 H         -17.483791      -42.831913      -12.386154
 H         -16.647686      -47.108864      -12.063601
 H         -15.426651      -45.908825      -12.571598
 H         -17.533871      -45.193470      -13.410316
 H         -18.219906      -45.041180      -11.716871
