20
 generated by VMD
 C         -76.294640     -202.896500      -66.532455
 N         -77.040977     -203.267334      -65.720009
 H         -75.760971     -200.255508      -69.024399
 H         -75.403992     -202.509674      -67.104042
 C         -74.786491     -199.733765      -68.956650
 C         -74.842987     -198.278885      -68.581276
 C         -73.709885     -200.293442      -69.881805
 C         -73.398323     -197.806992      -68.633896
 C         -73.214012     -199.086807      -70.842003
 C         -72.783775     -197.832077      -70.016998
 H         -75.255188     -198.162918      -67.532692
 H         -75.539330     -197.640228      -69.310257
 H         -72.862968     -200.593719      -69.141823
 H         -73.982346     -201.117264      -70.607811
 H         -72.714668     -198.204773      -67.882324
 H         -73.348557     -196.788025      -68.280617
 H         -74.107506     -198.929840      -71.483757
 H         -72.401215     -199.374527      -71.479965
 H         -71.679565     -197.815948      -69.970474
 H         -73.011803     -196.864151      -70.531273
