20
 generated by VMD
 C          -1.418270      -10.866761        0.728607
 N          -1.000640      -10.215225        1.571182
 H          -3.664521      -12.879028        0.451513
 H          -4.803364      -12.311677        1.652851
 C          -4.373639      -13.219847        1.178325
 C          -3.506398      -13.886349        2.184108
 C          -5.451497      -14.177065        0.520144
 C          -4.300867      -14.580460        3.213889
 C          -6.279136      -14.724322        1.675760
 C          -5.382034      -15.532719        2.638063
 H          -2.872095      -13.214453        2.699146
 H          -2.839102      -14.568583        1.712786
 H          -6.005361      -13.510259       -0.091194
 H          -4.888259      -14.917166       -0.046424
 H          -4.818414      -13.903710        3.887947
 H          -3.765948      -15.157719        3.921447
 H          -7.117491      -15.360468        1.279361
 H          -6.788680      -13.925925        2.244480
 H          -5.994520      -15.985457        3.472195
 H          -4.911394      -16.404316        2.134833
