20
 generated by VMD
 C         -49.369877     -132.830261      -47.075764
 N         -49.911739     -131.876907      -47.037888
 H         -48.009224     -134.168655      -44.545273
 H         -49.113766     -133.886139      -47.179108
 C         -48.708813     -134.571716      -43.779335
 C         -49.052769     -136.030914      -43.872253
 C         -49.438553     -133.528580      -42.992249
 C         -49.984722     -136.503357      -42.677277
 C         -50.260765     -134.130951      -41.867489
 C         -50.960625     -135.329819      -42.348274
 H         -48.183983     -136.595657      -43.985664
 H         -49.635876     -136.163116      -44.806675
 H         -48.685936     -132.852615      -42.491673
 H         -49.972996     -132.844971      -43.792240
 H         -49.272305     -136.683548      -41.859833
 H         -50.399384     -137.425491      -43.102592
 H         -51.085087     -133.444275      -41.597111
 H         -49.727108     -134.301498      -40.975056
 H         -51.551109     -135.774933      -41.616768
 H         -51.789543     -135.164368      -43.113995
