20
 generated by VMD
 C          -2.630634      -16.884249        2.826974
 N          -2.208513      -16.795086        1.793806
 H          -4.463468      -15.966248        0.231435
 H          -4.556483      -17.250784       -1.032071
 C          -5.091112      -16.788517       -0.233487
 C          -6.326787      -16.104088       -0.918591
 C          -5.575207      -17.714777        0.879706
 C          -7.253837      -17.119823       -1.533162
 C          -6.563667      -18.735586        0.352464
 C          -7.696156      -18.182911       -0.533916
 H          -5.954171      -15.536044       -1.749209
 H          -6.755637      -15.357967       -0.200908
 H          -4.651045      -18.234579        1.245641
 H          -5.854252      -17.088573        1.759542
 H          -6.695562      -17.603315       -2.312575
 H          -8.063561      -16.688442       -2.133676
 H          -6.949244      -19.367386        1.161133
 H          -5.987360      -19.444689       -0.263151
 H          -8.291842      -19.010777       -1.006817
 H          -8.365067      -17.667072        0.172636
