20
 generated by VMD
 C         -50.205563     -129.314804      -43.056843
 N         -50.596966     -128.346436      -43.515484
 H         -48.692780     -128.064865      -39.934467
 H         -49.775681     -130.207062      -42.623829
 C         -47.657734     -127.988960      -40.318829
 C         -46.472290     -128.875076      -39.916920
 C         -47.295132     -126.714996      -41.020920
 C         -45.567303     -129.063309      -41.140671
 C         -46.213543     -126.965393      -42.119621
 C         -45.073112     -127.700890      -41.562084
 H         -46.892231     -129.885147      -39.728802
 H         -46.006832     -128.468643      -39.010479
 H         -48.285809     -126.171188      -41.403439
 H         -46.924988     -125.931122      -40.360065
 H         -46.170963     -129.563248      -41.881798
 H         -44.759281     -129.630234      -40.736656
 H         -45.970570     -125.956192      -42.506191
 H         -46.807842     -127.500397      -42.921410
 H         -44.309292     -127.663391      -42.315239
 H         -44.665188     -127.196144      -40.724960
