20
 generated by VMD
 C         -47.838749     -125.787621      -38.859180
 N         -48.452057     -126.740158      -38.573338
 H         -46.006416     -123.198219      -38.048508
 H         -47.286568     -124.793640      -38.975697
 C         -45.678482     -123.301926      -39.159977
 C         -44.510632     -124.247383      -39.448013
 C         -45.517761     -122.001442      -39.905781
 C         -44.520676     -124.501328      -40.952560
 C         -45.624474     -122.261841      -41.344784
 C         -44.455120     -123.252579      -41.737968
 H         -44.604568     -125.097687      -38.817158
 H         -43.551384     -123.733261      -39.057774
 H         -46.435234     -121.479614      -39.514423
 H         -44.744175     -121.371773      -39.618900
 H         -45.379814     -125.178673      -41.229172
 H         -43.679947     -125.172562      -41.194725
 H         -45.363762     -121.378304      -41.904980
 H         -46.602676     -122.510612      -41.715343
 H         -44.738735     -123.514847      -42.736542
 H         -43.417141     -122.831963      -41.792389
