20
 generated by VMD
 C         -39.389862     -116.470566      -35.023445
 N         -39.447845     -115.487366      -34.414726
 H         -41.348763     -115.601463      -37.420227
 H         -39.652992     -117.318947      -35.558681
 C         -42.434299     -115.830025      -37.595215
 C         -43.019196     -115.840202      -38.962666
 C         -43.332939     -115.720535      -36.431622
 C         -44.444965     -116.335419      -39.075344
 C         -44.641850     -116.520523      -36.589321
 C         -45.388351     -116.173874      -37.882927
 H         -42.504410     -116.584084      -39.587578
 H         -42.797211     -114.841087      -39.437725
 H         -42.833412     -116.285904      -35.606766
 H         -43.517155     -114.629372      -36.099804
 H         -44.360157     -117.377205      -39.456619
 H         -44.918949     -115.818153      -39.882065
 H         -45.254890     -116.246429      -35.717751
 H         -44.423351     -117.615669      -36.651947
 H         -46.294197     -116.704597      -37.948326
 H         -45.695320     -115.190247      -37.862827
