20
 generated by VMD
 C         -44.753815     -122.360519      -35.739948
 N         -44.814507     -123.030258      -34.820385
 H         -45.121975     -122.829620      -39.207550
 H         -44.917702     -121.831299      -36.606106
 C         -44.963848     -121.794647      -39.384182
 C         -43.513016     -121.391251      -39.692303
 C         -46.043053     -120.832039      -39.678181
 C         -43.305859     -120.251923      -40.582264
 C         -45.721046     -119.653000      -40.543613
 C         -44.314781     -119.094734      -40.417320
 H         -43.011246     -122.357445      -39.988056
 H         -43.095104     -120.995018      -38.780163
 H         -46.912930     -121.121178      -40.185814
 H         -46.437378     -120.507729      -38.695217
 H         -43.403870     -120.565010      -41.647919
 H         -42.197861     -119.935532      -40.579540
 H         -46.309933     -118.742523      -40.368824
 H         -45.951080     -119.713654      -41.700554
 H         -44.115627     -118.302055      -41.084572
 H         -44.207401     -118.693268      -39.440128
