20
 generated by VMD
 C         -68.911903     -184.677094      -66.300682
 N         -69.546173     -185.458862      -66.872444
 H         -69.584175     -182.783417      -63.459198
 H         -68.432274     -183.906830      -65.628922
 C         -69.126816     -183.581924      -62.804611
 C         -69.835945     -184.757248      -62.239410
 C         -68.108154     -182.968246      -61.917252
 C         -68.976952     -185.642593      -61.300735
 C         -67.069550     -183.823257      -61.309456
 C         -67.807487     -184.915833      -60.440166
 H         -70.282005     -185.464310      -63.011562
 H         -70.660889     -184.298965      -61.674232
 H         -67.586739     -182.158691      -62.377666
 H         -68.743752     -182.482788      -61.229271
 H         -68.524345     -186.442291      -62.013649
 H         -69.546501     -186.258453      -60.554852
 H         -66.290886     -183.371628      -60.757481
 H         -66.561035     -184.281799      -62.191612
 H         -67.064674     -185.679199      -60.285240
 H         -68.145409     -184.533493      -59.536541
