20
 generated by VMD
 C         -58.854801     -152.609558      -50.707748
 N         -59.963337     -152.931671      -50.397484
 H         -56.876041     -151.407654      -48.578930
 H         -57.944736     -152.099335      -50.925747
 C         -56.141022     -151.141861      -49.310719
 C         -55.419277     -152.210190      -50.021523
 C         -55.756977     -149.763321      -49.478687
 C         -54.513840     -151.821533      -51.258743
 C         -54.794285     -149.432343      -50.589924
 C         -53.811275     -150.593826      -50.856960
 H         -56.108929     -152.900330      -50.401844
 H         -54.841045     -152.781616      -49.265476
 H         -56.703060     -149.216461      -49.500973
 H         -55.327862     -149.540024      -48.529282
 H         -55.099285     -151.704224      -52.214584
 H         -53.884159     -152.668427      -51.516476
 H         -54.108562     -148.646927      -50.048397
 H         -55.335217     -149.056488      -51.419094
 H         -53.030643     -150.205597      -51.600594
 H         -53.303928     -150.789429      -49.921154
