20
 generated by VMD
 C         -29.396358      -89.711525      -25.689131
 N         -29.500149      -88.576927      -25.442448
 H         -31.593960      -90.726303      -27.390596
 H         -29.351631      -90.799767      -25.767246
 C         -32.484310      -90.135368      -27.372841
 C         -33.552460      -90.483681      -26.387840
 C         -33.005981      -89.353737      -28.566744
 C         -34.484936      -89.309875      -26.113476
 C         -33.819191      -88.124687      -28.321278
 C         -34.893364      -88.440720      -27.294174
 H         -33.148190      -90.878273      -25.485023
 H         -34.119549      -91.259995      -26.759031
 H         -32.070492      -89.106606      -29.066607
 H         -33.475147      -90.234978      -29.034533
 H         -33.970673      -88.691299      -25.378866
 H         -35.353821      -89.756065      -25.556232
 H         -34.301003      -87.617523      -29.092590
 H         -33.147964      -87.385193      -27.897659
 H         -35.321537      -87.627098      -26.835413
 H         -35.606838      -89.059624      -27.802820
