20
 generated by VMD
 C         -62.886967     -174.844711      -54.522083
 N         -63.082283     -174.320236      -55.516815
 H         -63.491764     -173.154861      -58.064552
 H         -62.593880     -175.309052      -53.598263
 C         -63.734039     -172.244003      -58.544525
 C         -64.030861     -171.118408      -57.601418
 C         -64.461876     -172.097778      -59.814919
 C         -63.939701     -169.696838      -58.283657
 C         -64.211472     -170.711731      -60.498577
 C         -64.487694     -169.582535      -59.610554
 H         -63.462772     -171.051208      -56.761295
 H         -65.100456     -171.171143      -57.201641
 H         -64.184746     -172.739868      -60.609112
 H         -65.544601     -172.140274      -59.689438
 H         -62.962269     -169.390030      -58.278500
 H         -64.311607     -168.945450      -57.638554
 H         -64.966553     -170.615585      -61.325211
 H         -63.195683     -170.702957      -60.910103
 H         -64.096619     -168.758926      -60.135639
 H         -65.546158     -169.327347      -59.608891
