20
 generated by VMD
 C         -31.706299      -78.865685      -26.452616
 N         -31.028530      -78.058357      -26.894360
 H         -28.875343      -80.396118      -24.988920
 H         -32.378918      -79.623909      -26.166571
 C         -28.830025      -81.157059      -24.165659
 C         -27.582876      -80.985962      -23.267866
 C         -29.962870      -82.101860      -23.757952
 C         -27.946447      -81.157890      -21.794086
 C         -30.128809      -82.148849      -22.250521
 C         -28.841347      -82.406288      -21.542084
 H         -27.187475      -80.021706      -23.535181
 H         -27.048304      -81.832146      -23.614618
 H         -30.941389      -81.763145      -24.276396
 H         -29.724913      -83.139091      -24.057888
 H         -28.624990      -80.242157      -21.586742
 H         -27.167442      -81.092751      -21.052637
 H         -30.813547      -82.888664      -21.902248
 H         -30.725031      -81.168541      -22.041925
 H         -28.970917      -82.540352      -20.469847
 H         -28.428339      -83.398033      -21.705711
