20
 generated by VMD
 C         -44.935558     -122.598244      -35.438049
 N         -45.268269     -123.647408      -34.998508
 H         -45.267044     -122.805550      -39.242455
 H         -44.705273     -121.682381      -35.983681
 C         -44.904495     -121.804008      -39.560699
 C         -43.493198     -121.377907      -39.554581
 C         -45.955765     -120.716171      -39.528400
 C         -43.267941     -120.520508      -40.737000
 C         -45.791859     -119.844627      -40.717121
 C         -44.390221     -119.352402      -40.930687
 H         -42.956619     -122.316223      -39.783806
 H         -43.117306     -120.886597      -38.708473
 H         -46.939705     -121.300339      -39.382404
 H         -45.846958     -120.049675      -38.584408
 H         -43.139782     -121.169235      -41.581287
 H         -42.310661     -119.992500      -40.762131
 H         -46.530914     -119.039734      -40.777206
 H         -46.096619     -120.383415      -41.635254
 H         -44.228622     -118.673424      -41.816010
 H         -44.296490     -118.686012      -39.969051
