20
 generated by VMD
 C         -57.672031     -150.722870      -48.626045
 N         -58.296082     -151.748734      -48.551071
 H         -54.597271     -149.152390      -47.281918
 H         -57.167854     -149.781158      -48.671951
 C         -54.551640     -148.901169      -48.370579
 C         -53.887646     -149.794937      -49.359451
 C         -54.732574     -147.432068      -48.832909
 C         -54.300781     -149.559082      -50.767529
 C         -55.061501     -147.253738      -50.310505
 C         -54.225842     -148.089264      -51.230625
 H         -54.120045     -150.909958      -49.219784
 H         -52.726665     -149.774200      -49.146290
 H         -55.263264     -146.890396      -48.094933
 H         -53.731739     -146.969421      -48.705601
 H         -55.324253     -149.909286      -50.946064
 H         -53.710335     -150.161606      -51.513527
 H         -55.075024     -146.284195      -50.592274
 H         -56.162495     -147.561646      -50.359070
 H         -54.735638     -148.223984      -52.203739
 H         -53.165638     -147.933304      -51.390320
