20
 generated by VMD
 C         -32.217300      -94.137772      -25.356138
 N         -33.224476      -94.669426      -25.405989
 H         -33.948708      -95.078522      -28.633053
 H         -31.170238      -93.826904      -25.205666
 C         -34.249607      -94.050903      -28.892881
 C         -35.636765      -93.613953      -28.630642
 C         -33.494904      -93.497093      -30.101133
 C         -35.732513      -92.062393      -28.593241
 C         -33.563274      -92.024269      -30.059181
 C         -35.016735      -91.473640      -29.808472
 H         -35.929935      -94.105118      -27.651264
 H         -36.423012      -93.921181      -29.425373
 H         -32.459938      -93.791832      -29.836477
 H         -33.824604      -94.021568      -30.988218
 H         -35.064640      -91.674789      -27.810961
 H         -36.839516      -91.804291      -28.445023
 H         -33.119183      -91.467415      -30.845968
 H         -32.893772      -91.715675      -29.192646
 H         -35.020542      -90.368584      -29.452677
 H         -35.628300      -91.685692      -30.782822
