20
 generated by VMD
 C         -11.582986      -26.870333       -0.806777
 N         -12.510146      -26.401049       -1.210148
 H         -10.327804      -26.171793       -4.012154
 H          -9.136231      -25.628624       -5.240321
 C          -9.270195      -26.002583       -4.223380
 C          -8.601535      -27.409094       -4.139128
 C          -8.667736      -25.137724       -3.083500
 C          -7.097745      -27.325697       -4.374411
 C          -7.190651      -24.982794       -3.406866
 C          -6.464608      -26.387405       -3.383437
 H          -8.968018      -28.130495       -4.914855
 H          -8.879401      -27.996357       -3.212828
 H          -9.259380      -24.210941       -3.101863
 H          -8.807558      -25.598808       -2.148345
 H          -6.887360      -27.104040       -5.459156
 H          -6.709517      -28.362783       -4.316190
 H          -6.734878      -24.329571       -2.620121
 H          -6.897746      -24.463184       -4.349465
 H          -5.409729      -26.181910       -3.627834
 H          -6.406339      -26.774940       -2.349566
