20
 generated by VMD
 C         -49.994526     -143.875610      -44.400654
 N         -49.289120     -143.657272      -45.258015
 H         -52.139095     -141.481415      -45.721840
 H         -50.536625     -143.965225      -43.498451
 C         -52.826294     -141.790405      -46.476433
 C         -52.250801     -141.794357      -47.850796
 C         -54.234753     -141.322449      -46.272507
 C         -53.138367     -142.343567      -48.859310
 C         -55.210876     -141.924835      -47.354893
 C         -54.581203     -141.727325      -48.773972
 H         -51.338211     -142.392487      -47.797852
 H         -51.990231     -140.727280      -48.253414
 H         -54.437157     -141.824692      -45.303360
 H         -54.130646     -140.254791      -46.217709
 H         -53.310631     -143.330322      -48.837883
 H         -52.615078     -142.127701      -49.754284
 H         -56.127823     -141.395279      -47.402470
 H         -55.482380     -142.891754      -46.958305
 H         -55.157902     -142.081146      -49.580730
 H         -54.507885     -140.715866      -48.968166
