20
 generated by VMD
 C         -40.517445     -116.984688      -34.489368
 N         -39.472889     -116.519920      -34.656612
 H         -41.497997     -115.957016      -37.856773
 H         -41.261986     -117.712120      -34.219860
 C         -42.558506     -116.311066      -37.971519
 C         -43.141914     -116.040169      -39.286011
 C         -43.336948     -116.118294      -36.656708
 C         -44.403957     -116.878624      -39.427418
 C         -44.745621     -116.836510      -36.832340
 C         -45.385891     -116.646706      -38.192383
 H         -42.482426     -116.292580      -40.129814
 H         -43.397079     -114.959389      -39.194324
 H         -42.859348     -116.365105      -35.745632
 H         -43.495838     -115.067551      -36.609505
 H         -44.053024     -117.963211      -39.398735
 H         -44.959133     -116.717407      -40.348873
 H         -45.444923     -116.403549      -36.036602
 H         -44.674786     -117.931564      -36.462242
 H         -46.307621     -117.227478      -38.274189
 H         -45.743332     -115.504921      -38.210217
