20
 generated by VMD
 C         -78.255074     -204.282425      -69.332153
 N         -79.062843     -203.812286      -70.004913
 H         -76.007851     -202.646881      -67.712479
 H         -77.453979     -204.690292      -68.818039
 C         -75.248848     -202.232864      -68.448669
 C         -75.455246     -200.845612      -69.053406
 C         -74.230751     -203.019394      -69.104301
 C         -74.842850     -200.917923      -70.575226
 C         -72.978096     -202.171005      -69.487640
 C         -73.347702     -201.102264      -70.621483
 H         -74.968208     -200.083481      -68.465439
 H         -76.581642     -200.684723      -69.058487
 H         -74.037399     -203.880173      -68.397583
 H         -74.717133     -203.575027      -69.925430
 H         -75.080215     -199.970093      -71.088272
 H         -75.321983     -201.711578      -71.143211
 H         -72.117516     -202.756195      -69.778290
 H         -72.498222     -201.772232      -68.585182
 H         -72.780800     -200.214462      -70.526344
 H         -73.090027     -201.546219      -71.527451
