20
 generated by VMD
 C         -38.246376     -108.044327      -37.332806
 N         -38.867458     -107.401344      -38.048702
 H         -40.654388     -108.286568      -34.789501
 H         -37.861496     -108.493858      -36.463253
 C         -40.783783     -109.283791      -34.462173
 C         -39.910755     -110.442131      -34.689953
 C         -42.127865     -109.562813      -34.062160
 C         -39.832272     -111.252510      -33.282513
 C         -42.212917     -110.372765      -32.732319
 C         -41.313000     -111.714127      -32.836151
 H         -38.905010     -110.015755      -34.844120
 H         -40.308704     -111.045158      -35.531631
 H         -42.553715     -108.560158      -33.790710
 H         -42.635193     -109.954048      -34.943039
 H         -39.485741     -110.630806      -32.462509
 H         -39.138546     -112.155434      -33.486763
 H         -43.223534     -110.671288      -32.385128
 H         -41.885746     -109.679565      -31.954166
 H         -41.291187     -112.301010      -31.757755
 H         -41.759125     -112.391769      -33.518341
