20
 generated by VMD
 C         -12.462040      -27.619030       -4.627982
 N         -13.144113      -28.014559       -5.424509
 H         -10.955482      -30.630949       -2.832191
 H         -10.919745      -29.164469       -3.923220
 C         -10.297740      -29.908035       -3.427702
 C          -9.526545      -30.566156       -4.539201
 C          -9.304934      -29.252903       -2.432546
 C          -8.761835      -29.571350       -5.293922
 C          -8.384528      -28.290766       -3.149783
 C          -7.748914      -28.932766       -4.405348
 H         -10.180701      -31.117384       -5.240688
 H          -8.881155      -31.416224       -4.163917
 H          -9.816577      -28.775583       -1.618513
 H          -8.771806      -30.106060       -1.969810
 H          -9.435731      -28.793594       -5.766269
 H          -8.358224      -30.063080       -6.186962
 H          -7.573315      -27.868500       -2.581838
 H          -8.891971      -27.369371       -3.509992
 H          -7.160503      -28.237465       -4.978931
 H          -7.128675      -29.691906       -3.935417
