20
 generated by VMD
 C         -33.696472      -96.165291      -25.198811
 N         -33.149452      -97.181839      -25.400200
 H         -34.901508      -93.536011      -27.337313
 H         -34.279423      -95.184052      -25.188686
 C         -34.806255      -93.680466      -28.433069
 C         -36.039021      -94.001099      -29.257050
 C         -33.507076      -93.374229      -29.221352
 C         -36.244350      -93.266388      -30.538012
 C         -33.773167      -92.577141      -30.453110
 C         -34.873192      -93.170654      -31.201805
 H         -36.938343      -94.057625      -28.566668
 H         -35.943573      -95.032547      -29.668238
 H         -32.666328      -92.972931      -28.562077
 H         -33.132244      -94.398911      -29.447014
 H         -36.471832      -92.228645      -30.298679
 H         -37.159149      -93.715034      -31.059534
 H         -32.969173      -92.688812      -31.219208
 H         -33.975540      -91.558449      -30.091642
 H         -35.088894      -92.715248      -32.095337
 H         -34.523216      -94.261620      -31.452826
