20
 generated by VMD
 C         -20.084341      -52.035694      -10.022953
 N         -20.988697      -51.376072       -9.947013
 H         -18.188276      -49.090881      -10.534415
 H         -19.259190      -52.928185       -9.778776
 C         -17.413197      -49.146530      -11.341367
 C         -16.865265      -50.466385      -11.676957
 C         -17.121052      -47.986122      -12.236005
 C         -16.651546      -50.697140      -13.210073
 C         -17.270679      -48.406750      -13.687204
 C         -16.275148      -49.522583      -14.116893
 H         -17.637032      -51.148476      -11.355054
 H         -15.924867      -50.670677      -11.159469
 H         -17.776142      -47.087254      -12.001119
 H         -16.106045      -47.662407      -11.966128
 H         -17.549440      -51.105534      -13.564409
 H         -15.827445      -51.413895      -13.335763
 H         -17.096230      -47.576607      -14.345712
 H         -18.281363      -48.853260      -13.766431
 H         -16.353048      -49.826855      -15.151459
 H         -15.276278      -49.209164      -13.964066
