20
 generated by VMD
 C          -4.992414      -21.061441        1.801557
 N          -5.334435      -20.406296        2.633569
 H          -5.007776      -18.648924       -0.817556
 H          -5.560530      -20.196299       -0.136816
 C          -5.778894      -19.398741       -0.903058
 C          -5.525006      -20.050398       -2.271811
 C          -7.249860      -18.930079       -0.590940
 C          -6.714834      -20.940193       -2.631978
 C          -8.363375      -19.836546       -1.157479
 C          -7.997135      -20.151382       -2.646391
 H          -4.640024      -20.688128       -2.282542
 H          -5.371025      -19.313950       -3.018962
 H          -7.237531      -18.970924        0.559653
 H          -7.288961      -17.922106       -1.013959
 H          -6.659645      -21.849100       -2.038322
 H          -6.614013      -21.243229       -3.707690
 H          -9.307729      -19.259241       -1.167755
 H          -8.509936      -20.762075       -0.637722
 H          -8.803910      -20.635887       -3.131232
 H          -7.790104      -19.245321       -3.186296
