20
 generated by VMD
 C         -61.316174     -154.750595      -53.820473
 N         -61.762463     -155.076630      -52.762733
 H         -58.017754     -155.128235      -52.244480
 H         -61.012085     -154.498169      -54.810997
 C         -57.156776     -154.626617      -51.803635
 C         -57.254501     -154.201477      -50.376659
 C         -55.907047     -154.180313      -52.524990
 C         -56.223789     -154.655640      -49.428043
 C         -54.635757     -154.605545      -51.645756
 C         -54.797916     -154.191742      -50.129791
 H         -58.191147     -154.609299      -49.989033
 H         -57.178028     -153.115692      -50.417896
 H         -55.803486     -154.616364      -53.557953
 H         -56.107101     -153.124161      -52.633915
 H         -56.141094     -155.686600      -49.332645
 H         -56.324932     -154.161804      -48.482857
 H         -53.706505     -154.230835      -52.157547
 H         -54.525433     -155.638550      -51.570553
 H         -53.910934     -154.673828      -49.675621
 H         -54.759171     -153.053833      -50.079971
