20
 generated by VMD
 C         -20.714615      -52.290916       -9.617074
 N         -21.217180      -51.970886      -10.623615
 H         -18.480364      -49.790325      -10.973587
 H         -19.855503      -52.622192       -8.708719
 C         -17.922270      -49.842308      -11.870601
 C         -17.378372      -51.160736      -12.238345
 C         -17.439312      -48.469250      -12.299657
 C         -16.991335      -51.147446      -13.673829
 C         -16.629782      -48.653893      -13.582169
 C         -15.942845      -50.028141      -13.813731
 H         -18.007450      -51.967705      -11.929106
 H         -16.465015      -51.228607      -11.652489
 H         -18.342161      -47.871513      -12.508616
 H         -16.889229      -48.009884      -11.521742
 H         -17.812538      -50.981236      -14.390807
 H         -16.567484      -52.144646      -13.992613
 H         -15.779198      -47.929207      -13.732853
 H         -17.235567      -48.358543      -14.398100
 H         -15.524920      -50.046085      -14.874804
 H         -15.078470      -50.229630      -13.112430
