20
 generated by VMD
 C         -68.293678     -194.332626      -66.405853
 N         -67.714630     -194.148438      -65.409981
 H         -70.371391     -190.989792      -66.655960
 H         -68.874992     -194.443390      -67.284775
 C         -71.321281     -191.115479      -66.181755
 C         -72.459373     -190.241562      -66.558273
 C         -71.482658     -192.059479      -65.004433
 C         -73.812431     -190.827713      -66.435532
 C         -72.890976     -191.928146      -64.413551
 C         -73.990372     -191.983047      -65.454979
 H         -72.455025     -189.810196      -67.621780
 H         -72.409866     -189.444305      -65.908463
 H         -71.292892     -193.060898      -65.408264
 H         -70.872101     -191.829788      -64.181473
 H         -74.107170     -191.212845      -67.379089
 H         -74.279266     -189.962494      -66.013535
 H         -72.939407     -191.083923      -63.783695
 H         -73.100342     -192.743149      -63.650600
 H         -73.910919     -193.011322      -65.898476
 H         -74.992256     -191.931473      -64.946037
