20
 generated by VMD
 C         -19.209286      -62.727955      -17.290775
 N         -20.242561      -62.593662      -16.777718
 H         -22.413576      -64.131409      -16.785809
 H         -18.296095      -62.657215      -17.709585
 C         -23.387182      -64.530624      -17.145786
 C         -23.887987      -64.068283      -18.500669
 C         -24.373125      -65.066452      -16.236721
 C         -24.629662      -65.271057      -19.193207
 C         -25.027359      -66.240211      -17.011478
 C         -25.689713      -65.920860      -18.316483
 H         -23.055758      -63.874535      -19.154114
 H         -24.357548      -63.100838      -18.649534
 H         -23.863163      -65.317383      -15.389247
 H         -25.065924      -64.280136      -15.965850
 H         -23.919596      -66.081543      -19.376015
 H         -25.145508      -64.970772      -20.151222
 H         -25.847218      -66.609695      -16.402035
 H         -24.286581      -67.088776      -17.093861
 H         -26.162289      -66.822876      -18.776852
 H         -26.514353      -65.146446      -18.124517
