20
 generated by VMD
 C         -10.646134      -36.397835       -8.788260
 N         -10.757346      -36.601559       -7.718322
 H         -13.507632      -37.263062       -7.300861
 H         -14.407944      -38.264053       -6.092012
 C         -13.963952      -38.194485       -7.144447
 C         -13.092075      -39.415134       -7.322843
 C         -15.008720      -38.207260       -8.232019
 C         -13.894658      -40.676369       -7.143456
 C         -15.840028      -39.495758       -8.211416
 C         -14.998366      -40.763634       -8.185879
 H         -12.322859      -39.411869       -6.592307
 H         -12.556918      -39.308002       -8.226691
 H         -15.702069      -37.366215       -8.122333
 H         -14.513044      -38.014938       -9.229387
 H         -14.322491      -40.756878       -6.154507
 H         -13.240307      -41.589359       -7.266396
 H         -16.518854      -39.555271       -9.054540
 H         -16.537594      -39.544159       -7.311239
 H         -15.657695      -41.589493       -7.911388
 H         -14.561854      -41.012005       -9.165538
