20
 generated by VMD
 C         -68.569847     -185.565399      -66.544525
 N         -67.879326     -186.297455      -67.134598
 H         -69.459717     -183.356140      -63.503677
 H         -69.148888     -184.931351      -65.945541
 C         -69.400787     -184.340836      -62.898380
 C         -70.667267     -184.962296      -62.485744
 C         -68.302872     -185.252045      -63.199745
 C         -70.477448     -185.775208      -61.196640
 C         -67.995712     -185.716232      -61.707802
 C         -69.218918     -186.586884      -61.238216
 H         -71.111984     -185.536270      -63.231766
 H         -71.438782     -184.258041      -62.228474
 H         -68.678986     -185.862305      -63.929203
 H         -67.419434     -184.753281      -63.629017
 H         -71.298546     -186.490601      -61.041649
 H         -70.465714     -185.005936      -60.397812
 H         -67.697815     -184.874466      -61.078300
 H         -67.190712     -186.400940      -61.714516
 H         -69.404068     -187.487320      -61.943855
 H         -69.264946     -187.137360      -60.280739
