20
 generated by VMD
 C         -55.821037     -149.125366      -45.766243
 N         -55.477383     -149.870392      -44.983181
 H         -54.816105     -148.221375      -48.361454
 H         -56.234806     -148.500214      -46.532627
 C         -54.198235     -147.382980      -48.711708
 C         -53.119190     -147.417221      -49.896835
 C         -54.858189     -145.975113      -48.457302
 C         -53.455860     -146.605728      -51.168304
 C         -55.241173     -145.247269      -49.797695
 C         -54.073532     -145.248077      -50.788185
 H         -52.658718     -148.372330      -50.172176
 H         -52.328926     -146.955673      -49.404804
 H         -55.792465     -146.193314      -47.917862
 H         -54.222775     -145.382706      -47.887821
 H         -54.238297     -147.122375      -51.678051
 H         -52.614288     -146.553009      -51.839298
 H         -55.658432     -144.343506      -49.632763
 H         -56.052181     -145.843369      -50.323891
 H         -54.432133     -144.822922      -51.722496
 H         -53.189861     -144.618454      -50.621666
