20
 generated by VMD
 C         -27.989613      -81.214714      -27.590578
 N         -29.159718      -81.222542      -27.478029
 H         -29.493931      -83.053673      -25.061916
 H         -26.901550      -81.247604      -27.461285
 C         -30.180525      -83.783669      -24.585735
 C         -30.215219      -83.959084      -23.074255
 C         -30.899864      -84.809135      -25.365309
 C         -31.666887      -84.380287      -22.501553
 C         -32.323559      -85.111145      -24.835808
 C         -32.179169      -85.454575      -23.342857
 H         -29.949718      -82.984917      -22.700066
 H         -29.451044      -84.776070      -22.752964
 H         -30.983717      -84.401489      -26.388775
 H         -30.211237      -85.654419      -25.243799
 H         -32.331451      -83.594437      -22.534430
 H         -31.498629      -84.650223      -21.388300
 H         -32.894928      -85.829979      -25.486027
 H         -32.950436      -84.260025      -24.898970
 H         -33.178329      -85.647865      -23.033541
 H         -31.636036      -86.414566      -23.345257
