20
 generated by VMD
 C         -51.869816     -130.007538      -45.211365
 N         -51.725880     -129.479156      -46.229488
 H         -48.693630     -129.931931      -43.104935
 H         -51.708763     -130.438843      -44.259167
 C         -47.920452     -130.053604      -42.411034
 C         -47.866348     -131.485748      -41.738426
 C         -47.317432     -128.918015      -41.622540
 C         -46.527058     -131.737534      -41.005138
 C         -45.995827     -129.236038      -40.861797
 C         -46.187263     -130.587433      -40.126274
 H         -48.027592     -132.216583      -42.441368
 H         -48.652115     -131.647583      -40.936279
 H         -47.036160     -128.088928      -42.304729
 H         -48.015118     -128.502808      -40.955170
 H         -45.819027     -132.096390      -41.809372
 H         -46.551601     -132.695297      -40.404888
 H         -45.799419     -128.553146      -40.091255
 H         -45.096058     -129.413971      -41.460670
 H         -45.339828     -130.874237      -39.521332
 H         -47.056053     -130.471161      -39.479874
