20
 generated by VMD
 C         -60.828243     -153.296402      -52.375061
 N         -60.773060     -153.029373      -51.191921
 H         -57.361767     -154.076202      -50.589176
 H         -60.825539     -153.481552      -53.473637
 C         -56.531090     -153.391632      -50.533428
 C         -55.555229     -153.638336      -49.465096
 C         -56.541786     -152.121567      -51.365818
 C         -54.184227     -153.213623      -49.877937
 C         -55.144264     -151.596893      -51.630672
 C         -54.091667     -151.738998      -50.555508
 H         -55.640095     -154.688599      -49.311375
 H         -55.662491     -153.053497      -48.587807
 H         -57.135384     -152.130569      -52.308010
 H         -57.011917     -151.334244      -50.754711
 H         -53.824722     -153.919907      -50.619640
 H         -53.539711     -153.191147      -48.962906
 H         -55.249634     -150.486465      -51.956409
 H         -54.706215     -151.971146      -52.470222
 H         -53.094784     -151.816513      -50.971363
 H         -54.150566     -151.058914      -49.784546
