20
 generated by VMD
 C         -27.539547      -84.677017      -26.524746
 N         -27.617653      -85.833733      -26.746233
 H         -31.422281      -84.775620      -25.917576
 H         -27.585733      -83.626740      -26.381479
 C         -32.089622      -85.660721      -25.758793
 C         -32.431664      -86.052284      -24.313316
 C         -32.279854      -86.636909      -26.895323
 C         -33.575115      -87.006775      -24.263275
 C         -33.444553      -87.526497      -26.845842
 C         -33.647976      -88.070786      -25.404203
 H         -32.752296      -85.210403      -23.615168
 H         -31.606770      -86.538010      -23.922215
 H         -32.249657      -86.048401      -27.794752
 H         -31.300478      -87.230225      -26.984661
 H         -34.555862      -86.525757      -24.352192
 H         -33.494312      -87.592743      -23.353699
 H         -33.237518      -88.349533      -27.554747
 H         -34.454094      -87.147934      -27.089317
 H         -34.591141      -88.716766      -25.482563
 H         -32.868217      -88.833244      -25.183144
