20
 generated by VMD
 C         -11.169973      -38.500385       -7.484615
 N         -11.754232      -37.695316       -6.944468
 H         -12.615707      -41.684467       -8.998657
 H         -13.357828      -40.473434       -7.971157
 C         -13.631444      -41.343956       -8.692517
 C         -14.520411      -42.447815       -8.171573
 C         -14.217639      -40.629845       -9.959759
 C         -15.899621      -41.799454       -7.758307
 C         -15.692821      -40.191441       -9.681160
 C         -16.614059      -41.248901       -9.055152
 H         -14.131101      -42.797653       -7.181291
 H         -14.735501      -43.266953       -8.878306
 H         -13.662127      -39.708504      -10.254756
 H         -14.266315      -41.320103      -10.769709
 H         -15.654353      -40.963715       -7.063760
 H         -16.482925      -42.595291       -7.278460
 H         -16.034676      -39.817371      -10.663313
 H         -15.718385      -39.282925       -9.064176
 H         -17.639076      -40.816032       -8.855454
 H         -16.796560      -42.124306       -9.685662
