20
 generated by VMD
 C         -26.859406      -71.721054      -17.578114
 N         -26.842093      -72.800827      -17.142376
 H         -24.549017      -69.717743      -18.585148
 H         -26.634987      -70.734406      -18.070778
 C         -24.885801      -70.192940      -19.513557
 C         -24.220442      -71.222198      -20.405197
 C         -25.761633      -69.290291      -20.269712
 C         -25.082556      -72.022873      -21.383854
 C         -26.575029      -70.020607      -21.302696
 C         -26.034056      -71.026726      -22.208166
 H         -23.722874      -71.970993      -19.759069
 H         -23.473763      -70.702835      -20.914932
 H         -26.448490      -68.859795      -19.560413
 H         -25.142656      -68.565361      -20.815073
 H         -25.648434      -72.820343      -20.827839
 H         -24.494013      -72.519180      -22.171066
 H         -26.968702      -69.256447      -21.982542
 H         -27.455547      -70.470634      -20.780529
 H         -26.711336      -71.662308      -22.803072
 H         -25.369135      -70.344986      -22.863758
