20
 generated by VMD
 C         -60.206318     -156.500732      -55.635536
 N         -60.834393     -155.629883      -55.980339
 H         -59.750694     -157.804077      -52.933727
 H         -59.580612     -157.318237      -55.395374
 C         -58.668957     -157.972061      -52.744213
 C         -57.797546     -156.801285      -52.630047
 C         -58.286732     -159.295456      -52.172302
 C         -57.312729     -156.603790      -51.157349
 C         -57.935989     -159.084183      -50.754368
 C         -56.859028     -157.987701      -50.585091
 H         -58.228565     -155.893936      -52.876293
 H         -56.987915     -157.126831      -53.241402
 H         -59.114460     -159.958618      -52.151775
 H         -57.544502     -159.732376      -52.779396
 H         -58.176537     -156.224899      -50.515293
 H         -56.662960     -155.762466      -51.149536
 H         -57.647842     -160.020294      -50.409580
 H         -58.738094     -158.977646      -50.041767
 H         -56.461830     -157.997971      -49.465508
 H         -55.958305     -158.307907      -51.037525
