20
 generated by VMD
 C          -5.980471      -22.139242        1.958173
 N          -6.552826      -22.894472        2.533169
 H          -5.203128      -19.359936       -0.787666
 H          -6.785574      -20.319136       -0.254691
 C          -6.139575      -19.904041       -1.088290
 C          -5.676062      -21.062140       -1.983443
 C          -7.186094      -19.042265       -1.876290
 C          -6.878981      -21.872845       -2.391580
 C          -8.402908      -19.876043       -2.329261
 C          -7.867341      -21.035904       -3.166320
 H          -4.930628      -21.757824       -1.512517
 H          -5.138943      -20.667976       -2.803052
 H          -7.362965      -18.193436       -1.238141
 H          -6.699977      -18.654312       -2.751394
 H          -7.359573      -22.353874       -1.522180
 H          -6.538439      -22.642307       -3.079632
 H          -8.946816      -19.196323       -2.960544
 H          -9.052085      -20.259962       -1.503093
 H          -8.712512      -21.733200       -3.390329
 H          -7.481339      -20.780514       -4.177007
