20
 generated by VMD
 C         -47.968430     -134.451614      -47.229092
 N         -48.010147     -133.796646      -48.237377
 H         -49.780384     -134.271576      -44.433525
 H         -47.803921     -135.040878      -46.275608
 C         -50.253597     -135.182785      -43.976124
 C         -50.593445     -136.336960      -44.864334
 C         -51.220158     -135.011856      -42.810036
 C         -50.817089     -137.642609      -44.048519
 C         -51.312279     -136.259933      -41.955688
 C         -51.744011     -137.511917      -42.863972
 H         -49.793461     -136.413818      -45.692112
 H         -51.498913     -135.970367      -45.389198
 H         -50.603455     -134.326294      -42.078835
 H         -52.169468     -134.527069      -43.037125
 H         -49.934696     -138.099380      -43.684364
 H         -51.176022     -138.256836      -44.896317
 H         -52.081470     -136.178680      -41.246788
 H         -50.352566     -136.444305      -41.493553
 H         -51.654015     -138.353806      -42.284168
 H         -52.704975     -137.372452      -43.257084
