20
 generated by VMD
 C         -30.914509      -74.934151      -22.653791
 N         -31.230558      -75.594574      -21.697586
 H         -28.815601      -77.185928      -21.583529
 H         -30.553722      -74.393814      -23.472336
 C         -27.745766      -77.003540      -21.378870
 C         -26.687368      -77.695358      -22.160803
 C         -27.373901      -75.781013      -20.639286
 C         -25.832182      -76.768311      -22.903515
 C         -26.487295      -74.885406      -21.515871
 C         -25.339224      -75.557571      -22.167528
 H         -26.999687      -78.455887      -22.791668
 H         -26.068434      -78.243347      -21.551394
 H         -28.207567      -75.222130      -20.292822
 H         -26.805645      -76.158150      -19.750561
 H         -26.400120      -76.416908      -23.771873
 H         -25.007618      -77.411064      -23.228359
 H         -26.226780      -74.025620      -20.918135
 H         -27.061348      -74.396835      -22.281595
 H         -24.729904      -74.944443      -22.857838
 H         -24.595152      -75.647591      -21.402367
