20
 generated by VMD
 C         -79.034248     -209.342667      -76.984558
 N         -79.001999     -209.764832      -75.933472
 H         -77.661682     -209.972198      -73.519127
 H         -79.088982     -208.835052      -78.007523
 C         -78.119743     -210.624527      -72.752525
 C         -77.139786     -211.136093      -71.670898
 C         -79.505096     -211.412537      -73.081100
 C         -77.980385     -211.455292      -70.397026
 C         -80.011452     -212.219925      -71.836594
 C         -78.969803     -212.573837      -70.778046
 H         -76.487518     -210.323990      -71.547531
 H         -76.637146     -212.019592      -72.025406
 H         -80.211998     -210.544220      -73.482277
 H         -79.361534     -212.111145      -73.943306
 H         -78.466942     -210.579102      -70.000160
 H         -77.441002     -211.867905      -69.560349
 H         -80.523666     -213.155609      -72.204285
 H         -80.658112     -211.455673      -71.327156
 H         -79.482819     -213.154800      -70.018707
 H         -78.302429     -213.248291      -71.328087
