20
 generated by VMD
 C          -1.624121       -8.424548        0.403551
 N          -2.426304       -7.689502        0.247860
 H          -3.469654       -9.223413        2.319541
 H          -2.179051      -10.338518        2.172495
 C          -3.097826      -10.229716        2.718950
 C          -3.936794      -11.431013        2.233358
 C          -2.923625      -10.241227        4.300102
 C          -3.511654      -12.734771        2.850422
 C          -2.416932      -11.578547        4.845566
 C          -3.506398      -12.627100        4.389648
 H          -3.887293      -11.409105        1.134776
 H          -5.048345      -11.209119        2.373577
 H          -2.199941       -9.495452        4.701903
 H          -3.963417      -10.091465        4.633680
 H          -2.511319      -13.061316        2.452286
 H          -4.240170      -13.521912        2.561173
 H          -2.423349      -11.532658        5.921704
 H          -1.461547      -11.913831        4.412212
 H          -3.212368      -13.584398        4.789478
 H          -4.523972      -12.484263        4.762911
