20
 generated by VMD
 C         -45.010731     -122.761406      -35.387001
 N         -45.443619     -123.822845      -35.086819
 H         -45.165939     -122.827957      -39.179794
 H         -44.866978     -121.809303      -35.793056
 C         -44.964493     -121.790092      -39.425877
 C         -43.504509     -121.356789      -39.569435
 C         -45.928787     -120.749908      -39.450188
 C         -43.297150     -120.563049      -40.839638
 C         -45.745087     -119.948914      -40.779949
 C         -44.373135     -119.444099      -41.141579
 H         -42.864758     -122.221756      -39.724834
 H         -43.124462     -121.024689      -38.618721
 H         -46.949741     -121.079216      -39.432537
 H         -45.734890     -120.058342      -38.543507
 H         -43.204140     -121.225441      -41.686256
 H         -42.244854     -120.148003      -40.730289
 H         -46.540771     -119.192497      -40.735645
 H         -45.930878     -120.789574      -41.585712
 H         -44.345184     -119.026070      -42.164349
 H         -44.154087     -118.675705      -40.425030
