20
 generated by VMD
 C          -7.022459      -23.373779        2.219254
 N          -7.200938      -22.385492        1.753773
 H          -8.345813      -23.357931       -0.879059
 H          -9.335232      -22.525814       -2.167464
 C          -8.296811      -22.642052       -1.796798
 C          -7.436353      -23.366096       -2.831596
 C          -7.654744      -21.366220       -1.337552
 C          -7.021252      -22.388208       -3.937313
 C          -7.277822      -20.450047       -2.430715
 C          -6.332275      -21.135288       -3.408745
 H          -8.064224      -24.153162       -3.360198
 H          -6.558313      -23.763464       -2.251722
 H          -8.411262      -20.865919       -0.668491
 H          -6.820933      -21.423998       -0.644390
 H          -7.931747      -22.168631       -4.521331
 H          -6.380589      -22.888224       -4.687843
 H          -6.818768      -19.516573       -2.031559
 H          -8.124146      -20.000553       -3.001875
 H          -6.036707      -20.369743       -4.170686
 H          -5.379063      -21.437527       -2.867076
