20
 generated by VMD
 C         -66.756577     -190.107193      -66.826256
 N         -67.625725     -190.143082      -66.026047
 H         -70.507980     -190.978455      -66.348648
 H         -65.842964     -189.971176      -67.327873
 C         -71.128448     -190.449509      -65.611359
 C         -72.407005     -191.086334      -65.179054
 C         -70.490967     -189.481613      -64.664024
 C         -73.274918     -190.323334      -64.091232
 C         -71.492073     -188.579559      -63.963127
 C         -72.498581     -189.394302      -63.208256
 H         -72.140106     -192.036652      -64.654472
 H         -72.986099     -191.138641      -66.047676
 H         -69.892586     -190.157303      -64.027695
 H         -69.890488     -188.922119      -65.322830
 H         -73.658340     -191.103195      -63.441307
 H         -74.049873     -189.703690      -64.578522
 H         -71.979393     -187.875061      -64.682381
 H         -70.935120     -187.901062      -63.300987
 H         -71.876060     -189.984924      -62.445473
 H         -73.159782     -188.775787      -62.597111
