20
 generated by VMD
 C         -12.510294      -30.245958       -7.997277
 N         -13.429495      -30.139912       -7.378832
 H         -11.448001      -30.393631       -5.006635
 H         -10.534136      -30.618408       -3.690465
 C         -10.865402      -31.180397       -4.612512
 C          -9.622327      -31.627945       -5.410320
 C         -11.845696      -32.235558       -4.286949
 C          -8.952744      -32.820980       -4.720140
 C         -11.196869      -33.405090       -3.661773
 C          -9.926446      -33.952946       -4.450725
 H          -8.925964      -30.785828       -5.504124
 H          -9.932266      -31.905289       -6.394176
 H         -12.602488      -31.861376       -3.579209
 H         -12.447176      -32.456806       -5.194843
 H          -8.384423      -32.529812       -3.773483
 H          -8.156087      -33.208767       -5.441165
 H         -11.975204      -34.190098       -3.618776
 H         -10.880133      -33.246670       -2.639220
 H          -9.404946      -34.822937       -3.936390
 H         -10.240096      -34.448853       -5.427441
