20
 generated by VMD
 C          -2.304615       -9.782862       -0.048087
 N          -2.207460       -8.775509        0.380923
 H          -2.253044      -11.130760        2.480270
 H          -2.359842      -12.087101        4.060695
 C          -2.761799      -11.901720        3.050503
 C          -2.543215      -13.260791        2.371725
 C          -4.264183      -11.549340        3.014140
 C          -3.503797      -14.333761        2.795349
 C          -5.135197      -12.619671        3.558022
 C          -4.965511      -13.836984        2.676038
 H          -1.476001      -13.614131        2.581393
 H          -2.687301      -13.138266        1.295739
 H          -4.438912      -10.517261        3.517810
 H          -4.515694      -11.413635        1.934883
 H          -3.332510      -14.556587        3.869013
 H          -3.318544      -15.273415        2.174910
 H          -6.171687      -12.315612        3.442947
 H          -4.906283      -12.817422        4.575995
 H          -5.664987      -14.574729        3.076432
 H          -5.197039      -13.580117        1.634603
