20
 generated by VMD
 C         -38.073421     -114.666664      -35.388783
 N         -38.970852     -115.230957      -34.855091
 H         -41.534225     -115.767540      -36.592941
 H         -37.355984     -114.194382      -35.978760
 C         -42.404312     -115.219894      -36.919266
 C         -42.864830     -115.195480      -38.392200
 C         -43.510120     -115.011894      -35.908825
 C         -44.198387     -115.963562      -38.648647
 C         -44.745388     -115.969162      -36.191818
 C         -45.261959     -115.614342      -37.600842
 H         -41.971146     -115.621590      -38.938854
 H         -42.920143     -114.145615      -38.781570
 H         -43.161819     -115.423393      -34.872318
 H         -43.791737     -113.883675      -35.950058
 H         -43.885822     -117.031273      -38.691669
 H         -44.516075     -115.768509      -39.621613
 H         -45.634243     -115.854515      -35.458443
 H         -44.266041     -117.001503      -36.182922
 H         -46.249683     -116.030678      -37.810524
 H         -45.469261     -114.340446      -37.712223
