20
 generated by VMD
 C         -16.721418      -47.766514       -7.264315
 N         -16.344461      -46.728073       -7.209256
 H         -16.925709      -48.473286      -10.199362
 H         -15.518752      -48.361870      -11.388272
 C         -16.461018      -47.880890      -11.059901
 C         -16.230469      -46.442875      -10.651698
 C         -17.439987      -47.850464      -12.230180
 C         -15.781790      -45.456745      -11.718719
 C         -17.078316      -46.846664      -13.365627
 C         -16.849281      -45.390457      -12.811569
 H         -15.552745      -46.396961       -9.796340
 H         -17.149818      -46.110020      -10.177910
 H         -17.440498      -48.883289      -12.639852
 H         -18.449123      -47.784847      -11.845628
 H         -14.852585      -45.809750      -12.146767
 H         -15.590349      -44.457443      -11.324396
 H         -17.790598      -46.687881      -14.168175
 H         -16.147848      -47.260208      -13.755686
 H         -16.448074      -44.824272      -13.669410
 H         -17.804317      -44.996029      -12.503651
