20
 generated by VMD
 C         -77.663788     -203.081985      -69.517403
 N         -78.082130     -203.987793      -68.876259
 H         -75.598946     -202.091248      -67.500046
 H         -77.209511     -202.385559      -70.241577
 C         -74.859848     -201.542236      -68.195518
 C         -75.130257     -200.108353      -68.589325
 C         -73.862396     -202.509659      -68.830772
 C         -74.768166     -199.729141      -69.952644
 C         -73.054535     -201.765411      -69.938774
 C         -74.019287     -200.725266      -70.784416
 H         -74.690353     -199.446579      -67.867592
 H         -76.255188     -199.839706      -68.546303
 H         -73.186348     -202.831573      -68.007645
 H         -74.358543     -203.382324      -69.187134
 H         -74.186226     -198.802704      -70.015701
 H         -75.705025     -199.664566      -70.448746
 H         -72.721001     -202.575958      -70.633858
 H         -72.219009     -201.211533      -69.424370
 H         -73.475578     -200.266785      -71.589111
 H         -74.877975     -201.443497      -71.252029
