20
 generated by VMD
 C         -60.713993     -153.337097      -52.117245
 N         -61.285446     -154.057297      -51.494053
 H         -57.793392     -153.637375      -51.337002
 H         -60.167492     -152.724060      -52.812874
 C         -56.731842     -153.410080      -51.215645
 C         -56.287857     -153.946320      -49.833172
 C         -56.110065     -152.138351      -51.821999
 C         -54.803596     -153.672775      -49.688938
 C         -54.650719     -152.194473      -51.748806
 C         -54.239349     -152.352692      -50.314423
 H         -56.652905     -154.931778      -49.881603
 H         -56.757679     -153.290009      -49.092331
 H         -56.455647     -151.891556      -52.849251
 H         -56.454418     -151.289856      -51.275169
 H         -54.319839     -154.588745      -50.016712
 H         -54.526531     -153.806213      -48.591183
 H         -54.209042     -151.332779      -52.051548
 H         -54.314884     -153.136841      -52.303864
 H         -53.133896     -152.479156      -50.276123
 H         -54.323067     -151.401779      -49.829224
