20
 generated by VMD
 C         -40.378918     -100.990898      -32.327652
 N         -41.186069     -100.863342      -31.464708
 H         -37.980492     -103.256233      -32.496292
 H         -39.784081     -101.185974      -33.183113
 C         -37.234379     -102.805077      -31.874964
 C         -36.130146     -102.444817      -32.923565
 C         -37.182980     -102.452881      -30.525454
 C         -35.253391     -101.319885      -32.415585
 C         -36.520046     -101.097565      -30.229370
 C         -35.142643     -101.247612      -30.839956
 H         -36.668934     -102.191170      -33.814869
 H         -35.560368     -103.319740      -33.184536
 H         -38.188496     -102.341156      -30.012535
 H         -36.634064     -103.249916      -30.017452
 H         -35.843689     -100.478905      -32.732952
 H         -34.400158     -101.278831      -33.000397
 H         -36.554424     -100.926712      -29.171824
 H         -37.136982     -100.250099      -30.682892
 H         -34.707321     -100.276093      -30.585571
 H         -34.717834     -102.096870      -30.356113
