20
 generated by VMD
 C          -1.411180      -10.456178        1.172044
 N          -0.820507      -11.319182        1.506025
 H          -3.835557      -13.333066       -0.045772
 H          -5.131805      -12.591390        0.805683
 C          -4.584035      -13.520551        0.783419
 C          -3.792547      -13.887243        2.121900
 C          -5.416511      -14.689950        0.306023
 C          -4.628602      -14.546688        3.187584
 C          -6.338190      -15.225364        1.382244
 C          -5.517029      -15.603037        2.597773
 H          -3.382068      -12.931415        2.425611
 H          -2.952805      -14.517118        1.724418
 H          -6.034760      -14.516846       -0.548422
 H          -4.816770      -15.481175       -0.067783
 H          -5.237309      -13.692348        3.616229
 H          -3.992001      -14.898683        4.018140
 H          -6.922866      -16.057127        0.982428
 H          -7.124290      -14.447428        1.598592
 H          -6.135653      -16.048235        3.367572
 H          -4.858511      -16.388245        2.277962
