20
 generated by VMD
 C         -25.823555      -71.239098      -17.113371
 N         -25.624027      -71.634590      -16.030872
 H         -24.222075      -69.249947      -18.571629
 H         -25.926884      -70.854126      -18.183424
 C         -24.598227      -69.166588      -19.582428
 C         -23.936167      -70.038651      -20.568102
 C         -25.819904      -68.356956      -20.038666
 C         -24.860180      -71.104713      -21.307678
 C         -26.772650      -69.370316      -20.681061
 C         -26.035543      -70.201492      -21.788225
 H         -23.158632      -70.714272      -20.025032
 H         -23.447241      -69.412460      -21.355370
 H         -26.237688      -67.826401      -19.123451
 H         -25.427292      -67.619530      -20.719103
 H         -25.210468      -71.901001      -20.684788
 H         -24.315363      -71.558044      -22.198389
 H         -27.564873      -68.749855      -21.146118
 H         -27.339746      -70.028297      -19.976318
 H         -26.859024      -70.749756      -22.129459
 H         -25.763788      -69.508263      -22.535667
