20
 generated by VMD
 C         -38.548351      -98.663277      -27.751749
 N         -38.423378      -99.778770      -27.412979
 H         -37.412735      -98.071571      -30.788330
 H         -38.821381      -97.653519      -28.096188
 C         -36.445686      -97.539307      -30.871754
 C         -35.653339      -98.122360      -31.952000
 C         -35.691277      -97.308472      -29.588823
 C         -34.341526      -97.417175      -32.302570
 C         -34.514553      -96.338982      -29.819586
 C         -33.641109      -96.788689      -30.980469
 H         -36.182823      -98.230545      -32.951687
 H         -35.464569      -99.159317      -31.620745
 H         -36.320839      -97.005165      -28.702614
 H         -35.280922      -98.262993      -29.341377
 H         -34.688137      -96.575600      -32.954269
 H         -33.645058      -98.225220      -32.870716
 H         -33.849243      -96.458580      -28.942410
 H         -34.776768      -95.287338      -29.872038
 H         -33.153488      -95.903992      -31.151241
 H         -32.796150      -97.506660      -30.670858
