20
 generated by VMD
 C         -80.171844     -205.542816      -72.209999
 N         -79.993141     -206.664154      -72.177841
 H         -77.302498     -204.232315      -71.059814
 H         -80.470848     -204.564117      -72.012642
 C         -76.407112     -204.842941      -71.250916
 C         -75.154816     -203.993011      -71.288818
 C         -76.327904     -206.175491      -70.654533
 C         -74.656548     -203.865402      -69.859726
 C         -75.555664     -206.040283      -69.268440
 C         -74.245842     -205.235733      -69.292915
 H         -75.254150     -203.067734      -71.833611
 H         -74.365219     -204.557526      -71.788574
 H         -77.168900     -206.816254      -70.421310
 H         -75.659584     -206.844528      -71.258034
 H         -75.431763     -203.496597      -69.177925
 H         -73.699631     -203.262619      -69.919945
 H         -75.511703     -207.111832      -68.820175
 H         -76.191307     -205.469055      -68.518211
 H         -73.985054     -205.148071      -68.213058
 H         -73.450653     -205.666061      -69.883713
