20
 generated by VMD
 C         -38.631966     -115.498024      -35.434120
 N         -39.347935     -115.343819      -34.506153
 H         -41.337650     -115.611290      -36.958412
 H         -38.206341     -115.812187      -36.363583
 C         -42.465706     -115.546204      -37.204231
 C         -42.874249     -115.576607      -38.597618
 C         -43.448215     -115.393845      -36.070187
 C         -44.313229     -116.114983      -38.878422
 C         -44.679832     -116.186897      -36.433426
 C         -45.275414     -115.853355      -37.720924
 H         -42.048386     -116.070908      -39.229443
 H         -42.987038     -114.545807      -39.028275
 H         -42.869205     -115.814468      -35.156811
 H         -43.609276     -114.316124      -36.157913
 H         -44.254829     -117.167923      -39.130745
 H         -44.630112     -115.640518      -39.857113
 H         -45.449474     -115.920868      -35.627934
 H         -44.373672     -117.287575      -36.308117
 H         -46.137756     -116.423454      -37.943924
 H         -45.703209     -114.725571      -37.912106
