20
 generated by VMD
 C         -58.566940     -161.382233      -56.339111
 N         -58.405682     -160.258469      -56.442528
 H         -59.623428     -164.991394      -55.176010
 H         -58.771713     -162.429642      -56.195511
 C         -60.128025     -164.100327      -54.702766
 C         -59.819920     -163.545792      -53.358109
 C         -61.592453     -164.180786      -54.948067
 C         -60.323467     -162.190247      -53.233555
 C         -62.264191     -162.908142      -54.572674
 C         -61.840199     -162.162598      -53.328678
 H         -58.762905     -163.696884      -53.170078
 H         -60.185745     -164.136612      -52.536125
 H         -61.806427     -164.383148      -56.070782
 H         -62.053104     -165.054596      -54.546940
 H         -60.111137     -161.575470      -54.096127
 H         -60.058609     -161.624542      -52.260239
 H         -63.373203     -163.192520      -54.396557
 H         -62.064117     -162.118744      -55.484955
 H         -62.124092     -161.119110      -53.466869
 H         -62.343037     -162.519470      -52.402615
