20
 generated by VMD
 C          -3.754150      -18.701696        2.156657
 N          -3.204807      -18.309214        3.045305
 H          -5.549427      -20.527611        0.293090
 H          -6.250638      -21.319994       -1.097215
 C          -6.191827      -20.384434       -0.582758
 C          -5.586967      -19.195080       -1.382370
 C          -7.592629      -19.926792       -0.127158
 C          -6.409081      -18.725548       -2.532356
 C          -8.396657      -19.433842       -1.319267
 C          -7.794810      -18.330339       -2.186216
 H          -4.672638      -19.532032       -1.816739
 H          -5.250170      -18.463202       -0.653660
 H          -8.180412      -20.814621        0.376520
 H          -7.498193      -19.155901        0.747500
 H          -6.441729      -19.545595       -3.274532
 H          -5.802957      -17.888186       -3.032087
 H          -9.366913      -19.050001       -0.928995
 H          -8.658188      -20.250443       -2.042598
 H          -8.396468      -18.186562       -3.080088
 H          -7.918445      -17.371704       -1.674820
