20
 generated by VMD
 C         -18.173311      -50.018860       -8.867883
 N         -19.283649      -49.993855       -9.028170
 H         -16.385120      -47.239998      -10.011897
 H         -17.150188      -48.752769      -10.423385
 C         -16.716965      -47.818275      -10.876370
 C         -15.500673      -48.286488      -11.689762
 C         -17.737127      -47.052837      -11.715016
 C         -16.040567      -49.189487      -12.717369
 C         -17.999893      -47.651409      -13.097335
 C         -16.842512      -48.372196      -13.730932
 H         -14.835975      -48.774876      -10.981087
 H         -14.890362      -47.503246      -12.142468
 H         -18.654423      -46.829159      -11.129158
 H         -17.274195      -46.046349      -11.829909
 H         -16.591751      -50.071140      -12.322394
 H         -15.203713      -49.712578      -13.238261
 H         -18.390089      -46.892498      -13.798570
 H         -18.807880      -48.382496      -12.910018
 H         -17.278049      -48.979774      -14.491205
 H         -16.141205      -47.667301      -14.141693
