20
 generated by VMD
 C         -12.380985      -31.867498       -8.835990
 N         -12.602013      -30.836754       -8.537151
 H         -10.469296      -34.935497       -7.396404
 H         -11.439374      -33.728802       -6.700603
 C         -11.189750      -34.759846       -6.625779
 C         -10.367366      -35.054546       -5.371256
 C         -12.383357      -35.735180       -6.793591
 C         -11.129506      -35.075340       -4.027284
 C         -13.225214      -35.725304       -5.462368
 C         -12.342335      -36.016521       -4.247661
 H          -9.632685      -34.263268       -5.221694
 H          -9.890474      -36.038555       -5.501398
 H         -13.091203      -35.403160       -7.561456
 H         -12.064046      -36.741119       -7.037632
 H         -11.395188      -34.039879       -3.775055
 H         -10.530005      -35.540951       -3.232804
 H         -13.994022      -36.440449       -5.566229
 H         -13.688342      -34.670387       -5.416433
 H         -13.002625      -36.057991       -3.312456
 H         -11.933822      -37.037880       -4.334640
