20
 generated by VMD
 C         -58.736240     -168.521881      -54.956886
 N         -57.597607     -168.689621      -54.941586
 H         -62.085945     -168.466354      -55.534382
 H         -59.783791     -168.291397      -54.933025
 C         -62.396740     -167.673340      -56.249313
 C         -62.691307     -167.943451      -57.768082
 C         -62.872822     -166.363220      -55.580334
 C         -64.141258     -167.602341      -58.095501
 C         -64.283546     -166.145660      -56.000664
 C         -64.555557     -166.214005      -57.508022
 H         -62.415077     -169.128540      -58.042252
 H         -62.117100     -167.330750      -58.391621
 H         -62.611870     -166.231903      -54.568611
 H         -62.170181     -165.665192      -56.020287
 H         -64.848549     -168.315674      -57.625473
 H         -64.441872     -167.527145      -59.156689
 H         -64.710304     -165.137100      -55.654446
 H         -64.843506     -167.072922      -55.472576
 H         -65.546448     -165.993515      -57.770409
 H         -63.953842     -165.451248      -57.976501
