20
 generated by VMD
 C         -59.927525     -172.007111      -55.226673
 N         -59.720768     -173.115417      -54.801861
 H         -63.087299     -170.184235      -56.277340
 H         -59.948738     -171.052582      -55.737877
 C         -63.527508     -169.392700      -56.824142
 C         -62.672882     -168.285919      -57.429485
 C         -65.026299     -169.562820      -57.108101
 C         -63.188267     -167.874588      -58.858047
 C         -65.340210     -169.084503      -58.592560
 C         -64.713181     -167.752426      -58.896751
 H         -61.619438     -168.574814      -57.473118
 H         -62.668133     -167.378967      -56.659603
 H         -65.440178     -170.571793      -57.032597
 H         -65.711800     -168.974899      -56.386784
 H         -62.933117     -168.615143      -59.607670
 H         -62.696625     -166.962845      -59.119373
 H         -66.448898     -169.061935      -58.726387
 H         -65.098145     -169.851379      -59.305653
 H         -65.162010     -167.522980      -59.836704
 H         -65.015060     -166.983673      -58.116734
