20
 generated by VMD
 C         -19.097420      -61.386642      -16.132378
 N         -19.952187      -60.742626      -16.573225
 H         -21.865265      -62.948814      -18.376150
 H         -18.400339      -62.047638      -15.518501
 C         -22.892509      -63.105450      -17.954185
 C         -24.068012      -63.525780      -18.774603
 C         -23.048193      -63.426411      -16.462263
 C         -24.727194      -64.845665      -18.232157
 C         -23.857843      -64.683365      -16.016590
 C         -25.123987      -64.861176      -16.795176
 H         -23.814499      -63.558430      -19.884659
 H         -24.828379      -62.706394      -18.586370
 H         -22.001167      -63.456509      -15.948295
 H         -23.528650      -62.618370      -15.890797
 H         -24.064789      -65.659508      -18.579151
 H         -25.741274      -64.818321      -18.799576
 H         -24.196941      -64.611359      -14.982385
 H         -23.283289      -65.580933      -16.142786
 H         -25.622080      -65.774391      -16.419376
 H         -25.596930      -63.908680      -16.586973
