20
 generated by VMD
 C          -4.542754      -20.984798        2.383936
 N          -5.057196      -20.053780        2.719651
 H          -5.187616      -19.081152       -0.280065
 H          -5.953629      -20.643187       -0.236588
 C          -5.930525      -19.680868       -0.782187
 C          -5.588634      -19.803959       -2.280701
 C          -7.205850      -18.923672       -0.639943
 C          -6.689079      -20.588112       -2.931370
 C          -8.340701      -19.706835       -1.171120
 C          -8.127023      -20.081696       -2.628651
 H          -4.634600      -20.227848       -2.406944
 H          -5.422839      -18.771357       -2.725990
 H          -7.472779      -18.522198        0.325846
 H          -7.213193      -17.968483       -1.183465
 H          -6.618928      -21.666704       -2.591437
 H          -6.567785      -20.609329       -4.060359
 H          -9.262574      -19.143419       -0.976228
 H          -8.402254      -20.629217       -0.561118
 H          -8.847890      -20.876020       -2.851580
 H          -8.384947      -19.347034       -3.381781
