20
 generated by VMD
 C         -19.199703      -59.820690      -17.108927
 N         -18.919430      -60.783546      -16.476824
 H         -22.824533      -61.338467      -17.699068
 H         -19.504314      -58.888195      -17.485546
 C         -23.506882      -62.067593      -17.374983
 C         -24.421238      -62.984432      -18.201496
 C         -23.236799      -62.406345      -15.942222
 C         -23.998108      -64.452957      -17.918104
 C         -23.425579      -63.789291      -15.468744
 C         -24.088585      -64.818398      -16.432537
 H         -24.195051      -62.815998      -19.235626
 H         -25.450718      -62.823425      -17.833393
 H         -22.216703      -62.195694      -15.796769
 H         -23.873392      -61.717648      -15.396505
 H         -22.957443      -64.702003      -18.044107
 H         -24.595745      -65.174049      -18.475912
 H         -23.850975      -63.783421      -14.412837
 H         -22.441957      -64.186829      -15.039070
 H         -23.471788      -65.680748      -16.375830
 H         -25.072065      -65.167397      -16.147467
