20
 generated by VMD
 C         -75.770683     -202.413147      -66.308670
 N         -76.616989     -202.844025      -65.649620
 H         -75.605995     -200.270813      -68.789703
 H         -75.073837     -202.013718      -66.968849
 C         -74.842331     -199.580399      -69.030663
 C         -74.895538     -198.169174      -68.423355
 C         -73.844063     -200.017700      -70.098160
 C         -73.461685     -197.686905      -68.471664
 C         -73.280052     -198.798752      -70.802597
 C         -72.662376     -197.823395      -69.748116
 H         -75.210358     -198.179260      -67.362022
 H         -75.560287     -197.560913      -68.902168
 H         -73.119797     -200.694427      -69.588921
 H         -74.356186     -200.480652      -70.881683
 H         -72.943932     -198.137299      -67.589767
 H         -73.392212     -196.630783      -68.101036
 H         -73.940468     -198.209015      -71.376015
 H         -72.504570     -199.212509      -71.413185
 H         -71.540268     -198.109299      -69.489716
 H         -72.554199     -196.880768      -70.152611
