20
 generated by VMD
 C         -19.424534      -60.190769      -17.169415
 N         -19.116842      -60.775871      -16.222860
 H         -22.295078      -62.200325      -17.948519
 H         -19.547749      -59.611378      -18.116880
 C         -23.236025      -62.400036      -17.481548
 C         -24.249924      -62.992012      -18.360632
 C         -23.399826      -62.472645      -15.977572
 C         -24.151373      -64.501694      -17.881025
 C         -23.192465      -63.987534      -15.659170
 C         -24.324032      -64.800087      -16.417789
 H         -24.144432      -62.933331      -19.438475
 H         -25.252827      -62.507496      -18.306988
 H         -22.631474      -61.936890      -15.473885
 H         -24.302544      -61.944141      -15.593701
 H         -23.299562      -64.926453      -18.325722
 H         -25.009018      -64.971680      -18.407076
 H         -23.347940      -64.163429      -14.618393
 H         -22.205936      -64.320473      -15.990891
 H         -24.145212      -65.861389      -16.209032
 H         -25.336027      -64.488525      -16.090746
