20
 generated by VMD
 C         -58.990444     -159.432571      -57.377460
 N         -58.306202     -160.146088      -57.881138
 H         -58.770523     -161.436905      -54.884838
 H         -59.626106     -158.749115      -56.836445
 C         -59.498798     -161.625458      -54.115982
 C         -58.885441     -161.961990      -52.816772
 C         -60.799892     -162.199753      -54.382454
 C         -59.970337     -161.915543      -51.670719
 C         -61.812435     -161.835602      -53.353687
 C         -61.328461     -162.444275      -52.040451
 H         -57.930523     -161.395721      -52.525314
 H         -58.485573     -162.934921      -53.015495
 H         -61.151321     -161.816879      -55.346642
 H         -60.570858     -163.306976      -54.440159
 H         -60.025745     -160.957428      -51.327400
 H         -59.481838     -162.448166      -50.787823
 H         -62.791893     -162.317108      -53.605988
 H         -61.969009     -160.780685      -53.064827
 H         -62.126179     -162.118546      -51.243889
 H         -61.389252     -163.550110      -52.022972
