20
 generated by VMD
 C         -29.898304      -91.767578      -25.477560
 N         -29.081430      -92.225410      -24.834318
 H         -32.892532      -89.703926      -26.490036
 H         -30.790497      -91.322784      -26.028019
 C         -33.235909      -90.258896      -27.346663
 C         -34.123020      -91.444878      -27.375748
 C         -33.181358      -89.517311      -28.669531
 C         -35.602123      -91.047043      -27.621326
 C         -34.607132      -89.030083      -28.981052
 C         -35.606819      -90.271645      -28.979918
 H         -33.891499      -91.789246      -26.345451
 H         -33.679901      -92.104034      -28.081656
 H         -32.452805      -88.675156      -28.748606
 H         -32.941898      -90.151451      -29.529400
 H         -36.034180      -90.544617      -26.776550
 H         -36.190025      -92.044830      -27.789690
 H         -34.719486      -88.536682      -29.992304
 H         -34.952015      -88.415321      -28.147650
 H         -36.605579      -89.861168      -29.033964
 H         -35.450909      -90.969315      -29.771839
