20
 generated by VMD
 C         -22.010454      -55.416912      -17.563841
 N         -21.288475      -55.814701      -18.364788
 H         -21.527494      -56.756649      -14.102184
 H         -22.419748      -55.033756      -16.740580
 C         -21.268705      -57.838703      -14.186788
 C         -21.380346      -58.808407      -13.062303
 C         -21.081062      -58.461952      -15.553992
 C         -20.848755      -60.222099      -13.281528
 C         -20.270233      -59.796333      -15.616036
 C         -19.829092      -60.325428      -14.342890
 H         -22.391865      -58.808125      -12.771873
 H         -20.878735      -58.368320      -12.192561
 H         -22.095573      -58.772194      -16.014772
 H         -20.617970      -57.705151      -16.204578
 H         -21.671667      -60.965321      -13.452285
 H         -20.394539      -60.622494      -12.308480
 H         -19.433321      -59.585064      -16.281803
 H         -20.805338      -60.530472      -16.231653
 H         -19.653948      -61.349167      -14.540462
 H         -18.858877      -59.935192      -14.086318
