20
 generated by VMD
 C         -13.132370      -28.633181       -5.664987
 N         -12.716539      -27.636366       -5.415894
 H         -11.349853      -30.958010       -3.260322
 H         -11.062985      -29.429548       -4.070244
 C         -10.559403      -30.322714       -3.718674
 C          -9.807702      -31.034552       -4.767852
 C          -9.706849      -29.821562       -2.587449
 C          -8.692783      -30.140490       -5.275064
 C          -8.659088      -28.825689       -3.191183
 C          -7.841032      -29.564259       -4.218314
 H         -10.413356      -31.397442       -5.574296
 H          -9.330356      -32.017887       -4.359450
 H         -10.353325      -29.234827       -1.917150
 H          -9.253356      -30.582584       -2.002279
 H          -9.140947      -29.371017       -5.980740
 H          -8.019365      -30.686609       -5.975177
 H          -8.074903      -28.478020       -2.379758
 H          -9.218410      -27.951931       -3.599110
 H          -7.042200      -28.864059       -4.622266
 H          -7.205764      -30.352121       -3.875828
