20
 generated by VMD
 C          -2.899685      -17.784502        2.772866
 N          -2.547796      -17.615063        1.729260
 H          -5.252650      -19.188768        1.006631
 H          -5.389054      -19.995344       -0.571043
 C          -5.821123      -19.211960        0.062031
 C          -5.690792      -17.896708       -0.761708
 C          -7.282809      -19.386814        0.298462
 C          -6.462125      -17.887472       -2.087148
 C          -8.078429      -19.434547       -0.983872
 C          -7.947797      -18.227655       -1.821689
 H          -4.652951      -17.716831       -0.955363
 H          -5.962732      -17.080412       -0.023111
 H          -7.393124      -20.376575        0.838039
 H          -7.783747      -18.639658        1.091038
 H          -6.029983      -18.481417       -2.913570
 H          -6.397810      -16.828754       -2.533548
 H          -9.105514      -19.537355       -0.728107
 H          -7.913199      -20.355892       -1.544063
 H          -8.511352      -18.360117       -2.767005
 H          -8.466455      -17.415432       -1.312289
