20
 generated by VMD
 C          -9.221006      -24.046934        1.996841
 N          -9.078234      -25.096684        2.325480
 H          -7.566688      -23.423645       -0.916399
 H          -8.873506      -22.753967       -1.991483
 C          -7.853723      -23.033388       -1.874107
 C          -7.584702      -24.232094       -2.815239
 C          -6.917557      -21.836576       -2.262221
 C          -7.660850      -23.766981       -4.264557
 C          -6.972544      -21.430908       -3.674949
 C          -6.638490      -22.605282       -4.563222
 H          -8.336057      -24.970888       -2.512705
 H          -6.627429      -24.770576       -2.586620
 H          -7.285889      -20.978727       -1.718881
 H          -5.894323      -22.030781       -1.908507
 H          -8.644579      -23.461767       -4.622711
 H          -7.521200      -24.613375       -4.997499
 H          -6.247927      -20.654413       -3.865267
 H          -7.947390      -20.953568       -3.855387
 H          -6.696368      -22.357681       -5.634027
 H          -5.573974      -22.934805       -4.296950
