20
 generated by VMD
 C         -39.363518      -99.065704      -28.144983
 N         -38.717918      -99.957932      -27.758001
 H         -37.523273      -97.918335      -30.608133
 H         -40.123398      -98.220131      -28.304535
 C         -36.397141      -98.087189      -30.698826
 C         -35.680927      -98.328636      -31.981804
 C         -35.567436      -97.640709      -29.605783
 C         -34.456310      -97.534813      -32.370792
 C         -34.427158      -96.672188      -30.034115
 C         -33.576988      -97.397758      -31.057117
 H         -36.463573      -98.305984      -32.740639
 H         -35.497879      -99.417038      -31.918341
 H         -36.257614      -97.138382      -28.941748
 H         -35.190632      -98.491241      -29.008816
 H         -34.781921      -96.524147      -32.707443
 H         -33.994167      -98.112839      -33.155960
 H         -33.846848      -96.394623      -29.215435
 H         -34.705154      -95.778954      -30.601744
 H         -32.741562      -96.734856      -31.266205
 H         -33.218685      -98.409058      -30.817707
