20
 generated by VMD
 C         -15.104596      -45.866997       -7.119309
 N         -14.622318      -46.780262       -6.668993
 H         -15.467203      -44.205967       -9.114379
 H         -14.539971      -44.459175      -10.589630
 C         -15.547105      -44.465168      -10.166164
 C         -16.438629      -43.469803      -10.863684
 C         -16.120296      -45.890572      -10.251984
 C         -16.674631      -43.838078      -12.379478
 C         -16.340946      -46.211334      -11.685926
 C         -17.190750      -45.267021      -12.481190
 H         -15.843390      -42.529202      -10.880541
 H         -17.413315      -43.352612      -10.387487
 H         -15.385612      -46.545540       -9.862444
 H         -17.038754      -46.034767       -9.693233
 H         -15.684664      -43.702782      -12.826661
 H         -17.402016      -43.137299      -12.788283
 H         -16.646955      -47.219666      -11.827146
 H         -15.406458      -46.114216      -12.192639
 H         -17.167063      -45.688850      -13.484756
 H         -18.256996      -45.285870      -12.207699
