20
 generated by VMD
 C         -31.061548      -74.826157      -22.284500
 N         -31.238417      -75.838043      -21.707844
 H         -28.451797      -77.082649      -20.806215
 H         -30.957731      -73.763756      -22.523024
 C         -27.701565      -76.583305      -21.362011
 C         -26.684858      -77.459579      -22.035145
 C         -27.199034      -75.421074      -20.621473
 C         -25.826578      -76.640602      -22.920820
 C         -26.199030      -74.558868      -21.569786
 C         -25.200987      -75.487564      -22.205181
 H         -27.208223      -78.187256      -22.591469
 H         -26.246418      -78.003296      -21.181929
 H         -28.118980      -74.684990      -20.365744
 H         -26.748114      -75.792305      -19.676382
 H         -26.260839      -76.358398      -23.876955
 H         -24.983475      -77.285164      -23.116810
 H         -25.656536      -73.940971      -20.856916
 H         -26.725943      -73.951050      -22.300749
 H         -24.490955      -75.093613      -22.923927
 H         -24.440794      -75.807663      -21.450043
