20
 generated by VMD
 C         -48.362865     -126.122528      -38.722927
 N         -48.921860     -127.137550      -38.566639
 H         -45.769375     -123.252167      -38.137718
 H         -47.826698     -125.154579      -38.886566
 C         -45.477997     -123.316498      -39.179859
 C         -44.456146     -124.329025      -39.490784
 C         -45.637783     -122.008942      -39.971409
 C         -44.351086     -124.570152      -41.055748
 C         -45.537354     -122.340202      -41.516365
 C         -44.218048     -123.242500      -41.796944
 H         -44.868721     -125.197197      -39.088192
 H         -43.414745     -124.182159      -39.172005
 H         -46.647972     -121.640854      -39.797207
 H         -44.898418     -121.205162      -39.779480
 H         -45.292614     -125.072784      -41.396954
 H         -43.400524     -125.119637      -41.378628
 H         -45.364029     -121.328728      -42.032639
 H         -46.536533     -122.783226      -41.769768
 H         -44.213406     -123.478432      -42.874268
 H         -43.313046     -122.736374      -41.516323
