20
 generated by VMD
 C         -41.084087     -104.498276      -36.068687
 N         -42.061893     -104.976158      -36.435944
 H         -38.236343     -104.025261      -33.347256
 H         -40.121819     -104.207649      -35.615204
 C         -38.235893     -105.067154      -32.886780
 C         -36.933292     -105.540108      -32.226643
 C         -39.093174     -106.125450      -33.326317
 C         -37.265087     -106.648132      -31.158031
 C         -39.412552     -107.278374      -32.262669
 C         -38.191227     -107.927147      -31.660740
 H         -36.326935     -104.643021      -31.989681
 H         -36.325195     -105.981567      -32.975662
 H         -40.109379     -105.709427      -33.682068
 H         -38.619862     -106.590614      -34.183876
 H         -37.817982     -106.440048      -30.252487
 H         -36.301960     -107.026520      -30.757734
 H         -39.861832     -108.150398      -32.800484
 H         -39.909252     -106.849800      -31.441351
 H         -38.490887     -108.625313      -30.903202
 H         -37.570717     -108.439499      -32.436672
