20
 generated by VMD
 C         -19.923897      -51.266113      -10.330493
 N         -20.622765      -51.180458       -9.403626
 H         -17.686520      -48.945278      -10.145662
 H         -18.830677      -51.226768      -11.020741
 C         -17.171446      -48.944027      -11.153722
 C         -16.354132      -50.100117      -11.619829
 C         -17.369411      -47.876862      -12.133925
 C         -16.398783      -50.447090      -13.112917
 C         -17.573866      -48.362934      -13.544917
 C         -16.441061      -49.192337      -14.016814
 H         -16.516832      -51.012524      -10.956174
 H         -15.291124      -49.922913      -11.420890
 H         -18.132210      -47.161137      -11.783526
 H         -16.366455      -47.361809      -12.180712
 H         -17.215469      -51.148438      -13.417969
 H         -15.490327      -51.020588      -13.298405
 H         -17.731939      -47.560932      -14.299471
 H         -18.485519      -48.947670      -13.613665
 H         -16.563965      -49.495697      -15.073129
 H         -15.473108      -48.636658      -13.866214
