20
 generated by VMD
 C         -31.551371      -78.495537      -26.301125
 N         -31.282433      -77.945671      -27.305590
 H         -29.569944      -79.413071      -23.702187
 H         -31.675894      -79.226929      -25.594736
 C         -29.082546      -80.436356      -23.731361
 C         -27.656935      -80.625656      -23.343145
 C         -29.885302      -81.647980      -23.446857
 C         -27.540171      -81.101624      -21.803261
 C         -29.867775      -82.168633      -21.980698
 C         -28.433037      -82.172287      -21.412151
 H         -27.086458      -79.647659      -23.456186
 H         -27.158836      -81.466545      -23.833359
 H         -30.894464      -81.179222      -23.729074
 H         -29.670259      -82.424149      -24.110258
 H         -27.686314      -80.136536      -21.193611
 H         -26.524376      -81.390938      -21.610281
 H         -30.303812      -83.132774      -22.013714
 H         -30.582850      -81.631187      -21.334225
 H         -28.319250      -82.315987      -20.328259
 H         -28.074078      -83.189148      -21.725191
