20
 generated by VMD
 C         -40.458965     -100.175896      -30.272371
 N         -41.430805     -100.553879      -29.744184
 H         -37.174713     -101.277199      -30.561304
 H         -39.453060     -100.112022      -30.827074
 C         -36.376865     -100.578476      -30.884474
 C         -36.167622     -100.094444      -32.174450
 C         -35.431389     -100.383118      -29.794418
 C         -35.295658      -98.856194      -32.458534
 C         -34.451843      -99.194572      -30.159687
 C         -34.088612      -98.934120      -31.586094
 H         -37.083977      -99.908852      -32.733059
 H         -35.669586     -100.965591      -32.686348
 H         -36.055473     -100.156578      -28.896723
 H         -34.865093     -101.340393      -29.511631
 H         -35.991737      -98.000000      -32.308395
 H         -35.066158      -98.785728      -33.551586
 H         -33.464905      -99.429184      -29.621565
 H         -34.778412      -98.359337      -29.581928
 H         -33.456947      -98.067955      -31.610806
 H         -33.435375      -99.736565      -32.011230
