20
 generated by VMD
 C         -78.218864     -204.024857      -69.202415
 N         -79.111076     -204.057831      -69.915932
 H         -75.730431     -202.417419      -67.641434
 H         -77.354401     -203.969193      -68.483864
 C         -75.210114     -202.105789      -68.517975
 C         -75.294289     -200.606613      -68.891983
 C         -73.940659     -202.793869      -68.872688
 C         -74.822174     -200.357498      -70.329132
 C         -72.884705     -202.059967      -69.645836
 C         -73.465515     -201.122772      -70.768158
 H         -74.669548     -200.014069      -68.225609
 H         -76.361931     -200.245300      -68.733292
 H         -73.449013     -203.081650      -67.931396
 H         -74.231422     -203.712387      -69.550873
 H         -74.825798     -199.293457      -70.590530
 H         -75.629585     -200.717789      -71.029388
 H         -72.379173     -202.747665      -70.289520
 H         -72.295792     -201.528305      -68.898300
 H         -72.735672     -200.384033      -71.057465
 H         -73.644592     -201.629517      -71.639793
