20
 generated by VMD
 C         -20.712315      -64.670235      -17.185328
 N         -20.211119      -65.087219      -16.228905
 H         -24.170826      -63.466736      -17.753174
 H         -21.237467      -63.978561      -17.856159
 C         -24.542107      -64.495277      -18.025831
 C         -24.564072      -64.932060      -19.419186
 C         -25.004679      -65.445816      -16.937233
 C         -24.522968      -66.406319      -19.735788
 C         -24.772079      -66.887413      -17.404612
 C         -25.397921      -67.086113      -18.745768
 H         -23.846748      -64.308067      -20.044209
 H         -25.498917      -64.623436      -19.874939
 H         -24.366213      -65.304138      -15.985415
 H         -26.087822      -65.381248      -16.811907
 H         -23.492933      -66.733536      -19.788738
 H         -24.937464      -66.608925      -20.744396
 H         -25.133551      -67.611008      -16.698217
 H         -23.720659      -67.105164      -17.511160
 H         -25.319731      -68.142029      -18.941807
 H         -26.412338      -66.757309      -18.691065
