20
 generated by VMD
 C         -68.812302     -184.645752      -65.976028
 N         -69.577423     -185.470627      -66.224472
 H         -69.840950     -183.043808      -63.620083
 H         -68.044006     -183.889313      -65.679054
 C         -69.143394     -183.714005      -63.044502
 C         -69.894218     -184.946045      -62.517471
 C         -67.929504     -183.213104      -62.334953
 C         -68.981987     -185.783142      -61.665424
 C         -67.227158     -184.057205      -61.182724
 C         -68.257301     -185.088989      -60.609127
 H         -70.124084     -185.471207      -63.445095
 H         -70.774796     -184.618912      -62.011780
 H         -67.212440     -182.819351      -63.076035
 H         -68.145706     -182.363068      -61.747643
 H         -68.255348     -186.398300      -62.295765
 H         -69.636177     -186.598053      -61.241238
 H         -66.693146     -183.390015      -60.499382
 H         -66.408356     -184.719833      -61.605789
 H         -67.684921     -185.768250      -60.045307
 H         -68.943398     -184.468628      -59.971951
