20
 generated by VMD
 C         -40.677319     -100.233421      -30.261604
 N         -41.058689     -100.410820      -29.160053
 H         -37.483372     -100.530357      -30.631475
 H         -40.196114      -99.934547      -31.209490
 C         -36.524479     -100.038132      -30.867647
 C         -36.139412      -99.918655      -32.223499
 C         -35.340458     -100.009674      -29.867802
 C         -35.111290      -98.804077      -32.482426
 C         -34.290390      -98.915131      -29.991295
 C         -33.883030      -98.585640      -31.493242
 H         -37.020386      -99.761093      -32.885845
 H         -35.781467     -100.921432      -32.519596
 H         -35.700829     -100.043633      -28.788296
 H         -34.752571     -100.931000      -29.985092
 H         -35.610477      -97.796707      -32.541885
 H         -34.629875      -98.943138      -33.526985
 H         -33.334488      -99.214874      -29.375759
 H         -34.596832      -98.024849      -29.438297
 H         -33.489498      -97.643166      -31.519167
 H         -33.075089      -99.323494      -31.678988
