20
 generated by VMD
 C         -30.527325      -94.011993      -25.901241
 N         -30.532467      -93.623398      -24.812048
 H         -33.872635      -92.944290      -26.964958
 H         -30.573349      -94.264557      -27.034145
 C         -34.291595      -92.407181      -27.794519
 C         -35.716850      -92.662292      -28.121613
 C         -33.351215      -92.066261      -28.942686
 C         -36.275337      -91.387688      -28.669756
 C         -33.979179      -90.915443      -29.751362
 C         -35.504528      -90.975105      -29.916338
 H         -36.432842      -93.154358      -27.392561
 H         -35.722500      -93.474838      -28.863359
 H         -32.401405      -91.739380      -28.466349
 H         -33.221584      -92.994957      -29.659416
 H         -36.236588      -90.593643      -27.843426
 H         -37.316719      -91.572884      -28.918613
 H         -33.563457      -90.880005      -30.819160
 H         -33.624195      -90.036255      -29.252558
 H         -35.694904      -89.877563      -29.924925
 H         -35.751095      -91.346947      -30.874069
