20
 generated by VMD
 C         -21.844906      -66.948570      -16.796789
 N         -21.023699      -66.909119      -15.959383
 H         -23.995935      -64.842278      -18.037376
 H         -22.752256      -67.034897      -17.280300
 C         -24.553543      -65.722672      -18.544416
 C         -24.033934      -66.164864      -19.936449
 C         -25.852991      -66.156876      -17.950474
 C         -24.256174      -67.712547      -20.050978
 C         -26.235287      -67.537987      -18.401098
 C         -25.709196      -67.939148      -19.818283
 H         -22.897129      -66.050415      -20.023462
 H         -24.553921      -65.564629      -20.790909
 H         -25.741701      -65.972336      -16.879242
 H         -26.637249      -65.507690      -18.168533
 H         -23.645006      -68.215187      -19.230947
 H         -23.838657      -68.040703      -21.013420
 H         -27.373169      -67.627434      -18.372433
 H         -25.859591      -68.249382      -17.649328
 H         -25.859293      -69.000122      -20.055115
 H         -26.250399      -67.365341      -20.562056
