20
 generated by VMD
 C         -38.291794      -98.613037      -27.825090
 N         -38.316422      -99.615685      -27.261318
 H         -37.443733      -97.159317      -30.839514
 H         -38.215092      -97.623817      -28.210047
 C         -36.376900      -97.580956      -30.725414
 C         -35.558975      -98.075272      -31.928637
 C         -35.591972      -97.228455      -29.442560
 C         -34.487232      -97.066643      -32.207527
 C         -34.571297      -96.136978      -29.973127
 C         -33.675602      -96.822548      -30.913370
 H         -36.239876      -98.191093      -32.823662
 H         -35.297405      -99.071968      -31.579695
 H         -36.278706      -96.619591      -28.799717
 H         -35.272125      -98.106926      -28.905712
 H         -34.814484      -96.191368      -32.809101
 H         -33.702541      -97.581230      -32.965435
 H         -33.918587      -95.717827      -29.164675
 H         -35.063877      -95.287460      -30.470755
 H         -32.841194      -96.233276      -31.005953
 H         -33.339550      -97.890152      -30.681261
