20
 generated by VMD
 C         -39.608894     -116.626053      -34.889153
 N         -39.426231     -115.561279      -34.436596
 H         -41.539345     -115.469559      -37.667912
 H         -39.863792     -117.643044      -35.254025
 C         -42.491913     -115.945717      -37.683044
 C         -43.101147     -115.816353      -39.057850
 C         -43.336388     -115.795403      -36.462849
 C         -44.476292     -116.439140      -39.147503
 C         -44.575386     -116.576561      -36.635098
 C         -45.321068     -116.185394      -37.906780
 H         -42.409248     -116.454872      -39.627762
 H         -43.012180     -114.759239      -39.465473
 H         -42.785343     -116.290825      -35.600372
 H         -43.544659     -114.727539      -36.145283
 H         -44.341896     -117.535942      -39.211082
 H         -45.024597     -116.136101      -40.018749
 H         -45.219311     -116.459702      -35.716190
 H         -44.380135     -117.682266      -36.583332
 H         -46.142296     -116.709679      -37.995945
 H         -45.474007     -115.185860      -37.924622
