20
 generated by VMD
 C         -41.532642     -119.889313      -34.116291
 N         -41.745590     -120.688164      -34.904079
 H         -43.380238     -118.990799      -36.972992
 H         -41.092239     -119.169533      -33.523674
 C         -43.847126     -118.573486      -37.861668
 C         -43.068165     -118.422722      -39.182526
 C         -45.185524     -117.957619      -37.893497
 C         -43.942192     -118.744034      -40.404968
 C         -45.988976     -118.235527      -39.273319
 C         -45.206711     -117.908241      -40.514969
 H         -42.197346     -119.028603      -39.052593
 H         -42.543213     -117.451263      -39.285641
 H         -45.795071     -118.284927      -37.007919
 H         -45.088230     -116.893761      -37.764698
 H         -44.156639     -119.787682      -40.408962
 H         -43.317184     -118.449738      -41.277164
 H         -46.840744     -117.641411      -39.150166
 H         -46.355442     -119.310875      -39.398266
 H         -45.888237     -118.204468      -41.304050
 H         -45.044567     -116.860085      -40.540031
