20
 generated by VMD
 C         -13.405729      -30.858175       -8.299367
 N         -13.113102      -30.038794       -9.013830
 H         -11.390485      -31.870342       -6.168366
 H         -11.546254      -32.036480       -4.472351
 C         -11.186896      -32.583092       -5.320001
 C          -9.736265      -32.964783       -5.157901
 C         -12.078135      -33.846218       -5.507516
 C          -9.644854      -33.988857       -3.971077
 C         -11.997758      -34.840038       -4.388863
 C         -10.579280      -35.237934       -4.176849
 H          -9.028363      -32.101093       -5.058337
 H          -9.330176      -33.465195       -6.016566
 H         -13.166160      -33.649021       -5.687539
 H         -11.791888      -34.368816       -6.454524
 H          -9.950472      -33.375797       -3.116791
 H          -8.613104      -34.299988       -3.684942
 H         -12.675272      -35.745983       -4.488685
 H         -12.429499      -34.316235       -3.510831
 H         -10.513297      -35.914467       -3.305460
 H         -10.282116      -35.864296       -5.026925
