20
 generated by VMD
 C         -40.415573     -117.715897      -34.619869
 N         -39.454308     -117.191345      -35.013039
 H         -42.100048     -116.604431      -36.903328
 H         -41.328053     -118.112274      -34.295704
 C         -42.992950     -116.709824      -37.434559
 C         -42.878777     -116.719048      -38.931049
 C         -44.245029     -116.182426      -36.812515
 C         -44.068634     -117.357704      -39.609531
 C         -45.429054     -116.929611      -37.315273
 C         -45.317856     -116.847122      -38.960369
 H         -41.955112     -117.285248      -39.126301
 H         -42.816639     -115.647377      -39.237328
 H         -44.232525     -116.443642      -35.729095
 H         -44.490414     -115.124321      -36.908878
 H         -44.006924     -118.479355      -39.473797
 H         -43.964134     -117.146027      -40.684387
 H         -46.465652     -116.517738      -36.924667
 H         -45.565987     -117.951843      -36.971401
 H         -46.198963     -117.501999      -39.332676
 H         -45.482891     -115.818672      -39.228512
