20
 generated by VMD
 C         -10.393708      -33.141392       -8.956956
 N         -11.241835      -33.745670       -9.374142
 H         -13.120361      -33.825737       -6.176856
 H         -13.167550      -34.606747       -4.584760
 C         -13.015359      -34.812614       -5.691362
 C         -11.665710      -35.456810       -5.914559
 C         -14.163393      -35.748890       -6.084282
 C         -11.618678      -36.967735       -5.524300
 C         -14.072797      -37.209534       -5.766218
 C         -12.768562      -37.761635       -6.193811
 H         -10.779285      -34.893196       -5.484239
 H         -11.501178      -35.412327       -7.005334
 H         -15.091181      -35.257282       -5.781066
 H         -14.249887      -35.665119       -7.177854
 H         -11.610684      -37.151676       -4.444153
 H         -10.710796      -37.446007       -5.884404
 H         -14.802290      -37.723301       -6.328727
 H         -14.321790      -37.485138       -4.665178
 H         -12.660648      -38.877831       -6.001504
 H         -12.657610      -37.669849       -7.272514
