20
 generated by VMD
 C         -79.108948     -208.017273      -75.323639
 N         -78.479301     -207.184555      -75.852562
 H         -78.828773     -210.176254      -73.433960
 H         -79.701660     -208.623154      -74.585899
 C         -78.479477     -209.968460      -72.432632
 C         -77.265007     -209.258514      -72.351364
 C         -78.743629     -211.032608      -71.464340
 C         -77.036926     -208.722107      -70.888992
 C         -78.434677     -210.644501      -70.050812
 C         -77.068848     -209.826691      -69.933807
 H         -77.541557     -208.317047      -72.855408
 H         -76.456154     -209.902710      -72.799286
 H         -79.752617     -211.418457      -71.543213
 H         -78.100243     -211.917801      -71.783386
 H         -77.896996     -207.996323      -70.681343
 H         -76.033920     -208.231323      -70.765427
 H         -78.351456     -211.534653      -69.308525
 H         -79.196083     -209.988251      -69.703766
 H         -76.865341     -209.473145      -68.936050
 H         -76.250397     -210.463730      -70.293968
