20
 generated by VMD
 C         -38.010574      -98.808807      -27.399597
 N         -37.614346      -98.578926      -26.325468
 H         -36.343891      -97.418396      -29.249615
 H         -38.528912      -98.962730      -28.370619
 C         -35.872761      -96.707001      -29.898413
 C         -35.575443      -97.343445      -31.173231
 C         -34.806015      -95.819923      -29.175522
 C         -34.650013      -96.518776      -32.123123
 C         -34.154613      -94.867378      -30.142756
 C         -33.608646      -95.554520      -31.409172
 H         -36.523521      -97.586113      -31.656597
 H         -35.165359      -98.373291      -31.044909
 H         -35.171478      -95.167442      -28.397112
 H         -34.176949      -96.624016      -28.785208
 H         -35.159752      -95.907539      -32.847466
 H         -33.918610      -97.159645      -32.679077
 H         -33.383934      -94.375175      -29.529716
 H         -34.837151      -94.103813      -30.397749
 H         -33.219879      -94.849838      -32.075645
 H         -32.761066      -96.410713      -31.099276
