20
 generated by VMD
 C         -28.318850      -85.310318      -26.738611
 N         -27.326263      -85.884201      -26.448496
 H         -31.058937      -85.149414      -25.711903
 H         -29.083101      -84.673805      -27.007200
 C         -31.823610      -85.951530      -25.716328
 C         -32.515873      -86.323036      -24.398243
 C         -32.094009      -86.806343      -26.942205
 C         -33.783588      -87.140709      -24.485756
 C         -33.477116      -87.474487      -26.984669
 C         -33.872189      -88.229408      -25.637695
 H         -32.690708      -85.379974      -23.841387
 H         -31.877668      -86.984779      -23.750286
 H         -31.945818      -86.122543      -27.783619
 H         -31.271963      -87.559662      -26.864443
 H         -34.584698      -86.517349      -24.613457
 H         -33.944901      -87.743225      -23.581476
 H         -33.383499      -88.228874      -27.821507
 H         -34.233765      -86.751068      -27.245382
 H         -34.819611      -88.732552      -25.792734
 H         -33.180435      -89.033623      -25.404026
