20
 generated by VMD
 C         -23.402603      -53.182518      -13.908266
 N         -24.036678      -53.088104      -14.886866
 H         -20.530525      -55.195072      -15.049176
 H         -22.920835      -53.521263      -13.063313
 C         -19.580610      -55.331146      -14.413064
 C         -19.098173      -54.050346      -13.885151
 C         -18.643492      -56.451469      -14.582672
 C         -18.186815      -54.227489      -12.714547
 C         -17.420181      -56.492580      -13.705813
 C         -17.006842      -55.190758      -12.923892
 H         -20.014725      -53.449474      -13.695843
 H         -18.500942      -53.611858      -14.711467
 H         -19.157423      -57.380707      -14.537469
 H         -18.311106      -56.342060      -15.648949
 H         -18.741297      -54.622719      -11.847032
 H         -17.767452      -53.252789      -12.345010
 H         -16.572689      -56.782314      -14.353205
 H         -17.515844      -57.308239      -12.962574
 H         -16.573254      -55.409996      -11.976029
 H         -16.128910      -54.693966      -13.357998
