20
 generated by VMD
 C         -31.033102      -75.752617      -22.580626
 N         -31.062983      -74.782066      -23.249523
 H         -28.719257      -78.487923      -21.395828
 H         -30.995045      -76.745247      -21.929663
 C         -27.795658      -77.987862      -21.475334
 C         -26.765913      -78.241112      -22.672728
 C         -27.535616      -76.825958      -20.502321
 C         -26.177328      -76.888474      -23.202061
 C         -26.919777      -75.572899      -21.069662
 C         -25.737638      -76.068123      -21.972372
 H         -27.279476      -78.717865      -23.617180
 H         -25.856922      -78.793777      -22.281855
 H         -28.545540      -76.587273      -20.014456
 H         -27.031420      -77.227005      -19.659822
 H         -26.958624      -76.280922      -23.695915
 H         -25.397554      -77.127686      -23.964247
 H         -26.614796      -74.999634      -20.257067
 H         -27.634562      -75.075600      -21.674067
 H         -25.303850      -75.153488      -22.337118
 H         -25.079470      -76.681938      -21.331009
