20
 generated by VMD
 C         -68.305054     -194.202148      -66.147293
 N         -67.799835     -194.463547      -65.110435
 H         -70.606323     -191.391479      -67.109161
 H         -68.755463     -193.854172      -67.125061
 C         -71.575493     -191.504837      -66.636368
 C         -72.358971     -190.293503      -66.436623
 C         -71.678894     -192.570160      -65.558807
 C         -73.853630     -190.656662      -66.285469
 C         -72.899277     -192.395782      -64.679886
 C         -74.054298     -191.968933      -65.561256
 H         -72.262840     -189.613586      -67.213547
 H         -71.918877     -189.788239      -65.483742
 H         -71.570312     -193.550690      -66.118965
 H         -70.714622     -192.639938      -64.933197
 H         -74.613373     -190.588547      -67.048721
 H         -74.275803     -189.872940      -65.643440
 H         -72.758812     -191.591492      -63.864155
 H         -73.100006     -193.308807      -64.130753
 H         -74.276360     -192.707687      -66.267769
 H         -75.007607     -191.856750      -64.902451
