20
 generated by VMD
 C         -29.660595      -91.047859      -25.237602
 N         -28.997313      -91.950714      -24.997187
 H         -32.175419      -90.645454      -26.872255
 H         -30.344482      -90.299911      -25.355797
 C         -33.104610      -90.579239      -27.511539
 C         -34.235409      -91.435081      -27.486717
 C         -33.114624      -89.598824      -28.660662
 C         -35.592991      -90.788933      -27.486349
 C         -34.467693      -88.948196      -28.681585
 C         -35.700844      -89.888268      -28.733017
 H         -34.189457      -92.177727      -26.606115
 H         -34.144314      -92.137108      -28.390129
 H         -32.285091      -88.948494      -28.535919
 H         -32.912560      -90.108009      -29.605728
 H         -35.622761      -90.068787      -26.687740
 H         -36.461884      -91.349930      -27.494743
 H         -34.381157      -88.250092      -29.493826
 H         -34.437603      -88.275749      -27.842394
 H         -36.692039      -89.460587      -28.813339
 H         -35.721817      -90.472977      -29.672409
