20
 generated by VMD
 C         -60.894554     -156.039352      -54.367779
 N         -60.773167     -156.193253      -55.543537
 H         -59.275127     -156.185532      -50.981354
 H         -60.923424     -155.689194      -53.334034
 C         -58.337643     -155.792297      -51.349842
 C         -57.509377     -154.772812      -50.668133
 C         -57.652275     -156.578415      -52.399628
 C         -56.262470     -155.275894      -49.994534
 C         -56.507412     -157.188110      -51.684978
 C         -55.534218     -156.194794      -51.023727
 H         -58.068043     -154.251877      -49.868786
 H         -57.334015     -153.982864      -51.377312
 H         -58.271259     -157.448578      -52.769566
 H         -57.484814     -155.988068      -53.249168
 H         -56.591312     -155.959335      -49.288788
 H         -55.609013     -154.444717      -49.573277
 H         -55.848297     -157.635880      -52.462833
 H         -56.814976     -157.875000      -50.956558
 H         -54.775208     -156.811310      -50.613899
 H         -55.082684     -155.635468      -51.888126
