20
 generated by VMD
 C         -58.590305     -161.400208      -56.357983
 N         -58.410606     -160.211227      -56.473804
 H         -59.502232     -164.985626      -55.012325
 H         -58.732246     -162.476608      -56.233402
 C         -60.090553     -164.122238      -54.732117
 C         -59.789356     -163.592163      -53.311001
 C         -61.570366     -164.162491      -55.001469
 C         -60.314587     -162.098160      -53.188980
 C         -62.292767     -162.885986      -54.564304
 C         -61.862591     -162.137711      -53.287766
 H         -58.649612     -163.531921      -53.120102
 H         -60.490154     -164.180710      -52.545601
 H         -61.717125     -164.244202      -56.038952
 H         -62.019173     -165.070877      -54.482815
 H         -59.705093     -161.567688      -53.963570
 H         -59.961285     -161.611511      -52.352749
 H         -63.306549     -163.045898      -54.442322
 H         -62.240925     -162.269241      -55.408115
 H         -62.260929     -161.142303      -53.231277
 H         -62.290031     -162.559555      -52.378601
