20
 generated by VMD
 C         -51.093906     -145.261459      -44.300049
 N         -51.145050     -146.394745      -44.669147
 H         -53.413609     -144.856018      -46.597328
 H         -51.261597     -144.259781      -43.997776
 C         -53.606030     -144.125076      -47.358795
 C         -52.635098     -143.894821      -48.477192
 C         -54.719048     -142.968445      -47.237370
 C         -53.418655     -143.702560      -49.818489
 C         -55.490101     -142.795456      -48.551506
 C         -54.487625     -142.626816      -49.787323
 H         -52.066185     -144.717072      -48.534859
 H         -52.068573     -142.983139      -48.225815
 H         -55.505646     -142.999924      -46.417675
 H         -54.110909     -142.099884      -47.125118
 H         -53.752029     -144.728882      -50.042454
 H         -52.628815     -143.504959      -50.537991
 H         -56.318768     -142.111069      -48.573559
 H         -56.127350     -143.751755      -48.598888
 H         -54.990330     -142.682968      -50.709602
 H         -54.074440     -141.732712      -49.642517
