20
 generated by VMD
 C          -8.689225      -23.575901        2.413972
 N          -8.014571      -24.216532        3.033386
 H          -8.621887      -23.459846       -1.362173
 H          -9.282176      -22.570007       -2.810987
 C          -8.417711      -22.948582       -2.305808
 C          -7.725756      -23.940331       -3.267540
 C          -7.507360      -21.797682       -1.946531
 C          -7.157266      -23.272434       -4.528789
 C          -6.934630      -21.058344       -3.166560
 C          -6.232464      -22.050434       -4.115772
 H          -8.507454      -24.730839       -3.593348
 H          -6.937692      -24.390884       -2.674090
 H          -8.023832      -21.083525       -1.246606
 H          -6.679380      -22.133879       -1.309319
 H          -7.898879      -22.933357       -5.207346
 H          -6.556954      -23.908627       -5.122215
 H          -6.292397      -20.222212       -2.828797
 H          -7.703339      -20.554373       -3.764319
 H          -5.895730      -21.461546       -5.024467
 H          -5.281657      -22.512218       -3.741769
