20
 generated by VMD
 C         -18.248713      -48.676819       -7.220013
 N         -18.956188      -49.501167       -6.937656
 H         -16.228277      -47.684650      -10.125523
 H         -16.451590      -48.992619      -11.373482
 C         -16.355963      -47.934452      -11.163103
 C         -15.127637      -47.439960      -11.987567
 C         -17.648407      -47.296570      -11.666841
 C         -15.379952      -47.364193      -13.469347
 C         -17.801907      -47.723316      -13.110301
 C         -16.764963      -46.873501      -13.878993
 H         -14.290015      -48.098293      -11.838163
 H         -14.781933      -46.472824      -11.592673
 H         -18.531273      -47.706997      -11.113235
 H         -17.706139      -46.205078      -11.494981
 H         -15.200747      -48.390419      -13.821100
 H         -14.603297      -46.851971      -14.067609
 H         -18.802876      -47.457554      -13.305900
 H         -17.594400      -48.820160      -13.282344
 H         -16.905165      -47.036201      -14.941162
 H         -16.884472      -45.836636      -13.670660
