20
 generated by VMD
 C         -23.475327      -52.989136      -12.827409
 N         -23.048450      -52.601101      -13.820068
 H         -20.532288      -54.793743      -14.119292
 H         -23.846926      -53.240166      -11.805369
 C         -19.414967      -54.692726      -14.008808
 C         -19.059349      -53.207146      -14.065720
 C         -18.301556      -55.670929      -14.073674
 C         -17.713194      -53.013020      -13.291761
 C         -17.221291      -55.344929      -13.013086
 C         -16.600035      -54.029495      -13.421002
 H         -19.884726      -52.684986      -13.646303
 H         -18.989620      -52.786758      -15.044399
 H         -18.623194      -56.725887      -13.899019
 H         -17.892094      -55.668930      -15.044986
 H         -17.987230      -52.872208      -12.248776
 H         -17.285881      -52.037937      -13.590234
 H         -16.452595      -56.171329      -12.866093
 H         -17.712191      -55.206539      -12.082518
 H         -15.737966      -53.652580      -12.779219
 H         -16.136780      -54.088184      -14.448098
