20
 generated by VMD
 C         -62.490711     -174.096008      -55.130234
 N         -63.679131     -174.128540      -55.276638
 H         -62.551968     -172.515366      -58.195221
 H         -61.407833     -173.992493      -55.040867
 C         -63.093872     -171.615753      -58.412426
 C         -63.166920     -170.451340      -57.566315
 C         -64.134499     -171.974854      -59.374889
 C         -63.750267     -169.238190      -58.271225
 C         -64.597794     -170.763306      -60.143368
 C         -64.913826     -169.551743      -59.204090
 H         -62.098751     -170.116394      -57.218346
 H         -63.722134     -170.609650      -56.677925
 H         -63.747711     -172.573624      -60.089611
 H         -65.029541     -172.281738      -58.828411
 H         -62.979267     -168.675217      -58.862236
 H         -64.067169     -168.469193      -57.424824
 H         -65.493004     -171.066299      -60.668427
 H         -63.929600     -170.572510      -60.930759
 H         -65.247787     -168.656281      -59.702160
 H         -65.799370     -169.888092      -58.534916
