20
 generated by VMD
 C          -1.004954      -10.450521        1.091292
 N          -1.721432       -9.717840        0.705431
 H          -3.399524      -12.384642        0.904262
 H          -4.337054      -12.070731        2.366048
 C          -4.028369      -12.837302        1.696234
 C          -3.222254      -13.998470        2.369734
 C          -5.264099      -13.391936        0.937938
 C          -4.052569      -14.826066        3.320930
 C          -6.144645      -14.170280        1.979822
 C          -5.297832      -15.317981        2.636839
 H          -2.454108      -13.525575        2.876966
 H          -2.696211      -14.561271        1.638555
 H          -5.908841      -12.603286        0.429133
 H          -4.977421      -14.136190        0.140003
 H          -4.291227      -14.191719        4.179140
 H          -3.386569      -15.630089        3.611885
 H          -7.016820      -14.609245        1.498942
 H          -6.488775      -13.423713        2.725005
 H          -5.957242      -15.863012        3.351992
 H          -4.998880      -16.060379        1.811580
