20
 generated by VMD
 C         -12.295074      -32.198009       -8.579917
 N         -12.784794      -31.380024       -9.187027
 H         -10.407844      -34.383629       -7.101576
 H         -11.280807      -33.599403       -5.896083
 C         -11.049434      -34.571259       -6.294715
 C         -10.426172      -35.494827       -5.290077
 C         -12.321836      -35.287743       -6.752820
 C         -11.355344      -35.814327       -4.172857
 C         -13.351920      -35.628933       -5.657202
 C         -12.646862      -36.432171       -4.571001
 H          -9.513311      -34.995010       -4.878304
 H          -9.985117      -36.315151       -5.823446
 H         -12.913355      -34.724430       -7.483766
 H         -12.006457      -36.173492       -7.344769
 H         -11.538025      -34.903393       -3.595648
 H         -10.893563      -36.425602       -3.349078
 H         -14.281259      -36.150452       -5.994247
 H         -13.753222      -34.700336       -5.235517
 H         -13.321444      -36.591831       -3.653278
 H         -12.382973      -37.416027       -4.990552
