20
 generated by VMD
 C         -56.672729     -150.053558      -47.688992
 N         -57.654297     -150.418533      -48.154625
 H         -53.407688     -148.399277      -47.382805
 H         -55.723721     -149.778671      -47.215176
 C         -53.796318     -148.159576      -48.392700
 C         -53.120567     -148.789017      -49.624207
 C         -54.529922     -146.880051      -48.613102
 C         -54.162357     -148.781708      -50.705357
 C         -55.563061     -147.088440      -49.762630
 C         -54.960464     -147.560974      -50.955345
 H         -52.794979     -149.842850      -49.284561
 H         -52.300411     -148.096848      -49.765957
 H         -55.116634     -146.685837      -47.664486
 H         -53.928505     -145.932602      -48.883530
 H         -54.893780     -149.602417      -50.466888
 H         -53.598515     -149.015915      -51.612782
 H         -56.148441     -146.182388      -49.991146
 H         -56.252361     -147.938553      -49.307610
 H         -55.694576     -147.631363      -51.768028
 H         -54.309536     -146.707550      -51.322735
