20
 generated by VMD
 C         -50.032169     -131.608032      -46.704723
 N         -50.169952     -131.891769      -47.760746
 H         -48.637089     -131.632507      -44.006840
 H         -49.645790     -131.661560      -45.693493
 C         -48.910595     -132.226654      -43.157310
 C         -49.633102     -133.546829      -43.393322
 C         -48.766014     -131.863693      -41.695259
 C         -49.018490     -134.651611      -42.559143
 C         -48.060555     -132.968719      -40.970837
 C         -48.763435     -134.290665      -41.072258
 H         -49.641960     -133.726883      -44.425716
 H         -50.686924     -133.228928      -43.088852
 H         -48.195816     -130.938141      -41.696728
 H         -49.821846     -131.603333      -41.306133
 H         -48.152687     -134.825302      -43.146435
 H         -49.712570     -135.467728      -42.678391
 H         -47.926334     -132.680634      -39.933403
 H         -47.155304     -133.250519      -41.424488
 H         -48.423599     -135.200821      -40.493374
 H         -49.700420     -134.150970      -40.621193
