20
 generated by VMD
 C         -79.488800     -205.963486      -73.280708
 N         -79.280754     -206.750504      -74.149857
 H         -78.272522     -205.260818      -69.651566
 H         -79.382027     -205.274490      -72.504974
 C         -77.518974     -205.841217      -70.196106
 C         -76.644249     -205.314285      -71.289108
 C         -77.124199     -207.274902      -69.855789
 C         -75.203331     -205.231903      -70.685600
 C         -75.566132     -207.206436      -69.271698
 C         -74.596848     -206.437469      -70.120636
 H         -77.055252     -204.306030      -71.440941
 H         -76.586922     -205.761566      -72.224953
 H         -77.695534     -207.672562      -69.010117
 H         -77.173347     -207.985703      -70.691177
 H         -75.254364     -204.429153      -69.906982
 H         -74.537575     -204.858841      -71.483757
 H         -75.213425     -208.217865      -69.181122
 H         -75.768570     -206.776718      -68.273216
 H         -73.681847     -206.256577      -69.478912
 H         -74.337585     -207.102005      -70.939835
