20
 generated by VMD
 C         -23.376373      -54.696411      -14.884542
 N         -23.545992      -54.040440      -15.782046
 H         -19.842913      -54.424191      -15.615224
 H         -23.713541      -55.407375      -14.101249
 C         -19.462654      -55.149170      -14.804368
 C         -19.118223      -54.619446      -13.481261
 C         -19.080284      -56.500851      -15.221758
 C         -18.671921      -55.645332      -12.507967
 C         -18.768663      -57.580250      -14.106492
 C         -17.947796      -56.908428      -12.978352
 H         -19.965006      -53.931469      -13.219110
 H         -18.260761      -53.853218      -13.570242
 H         -19.757038      -56.908119      -15.955976
 H         -18.132538      -56.423000      -15.909104
 H         -19.515717      -55.980911      -11.904346
 H         -17.846508      -55.172134      -11.902242
 H         -18.198410      -58.382545      -14.563385
 H         -19.692322      -57.986130      -13.666957
 H         -17.866671      -57.594193      -12.148320
 H         -16.996864      -56.642807      -13.480283
