20
 generated by VMD
 C         -40.760178     -100.154869      -29.957979
 N         -40.605785     -100.295990      -28.820522
 H         -37.328724      -99.422485      -30.383026
 H         -40.772255      -99.811333      -31.040182
 C         -36.392200      -99.656685      -30.879532
 C         -36.002991      -99.673759      -32.273106
 C         -35.343861      -99.703773      -29.729967
 C         -34.959011      -98.510101      -32.486923
 C         -34.334450      -98.450150      -29.945665
 C         -33.755714      -98.484268      -31.476288
 H         -36.897331      -99.344917      -32.920013
 H         -35.662910     -100.640701      -32.566715
 H         -35.931183      -99.495468      -28.754118
 H         -34.820255     -100.637024      -29.622047
 H         -35.687141      -97.689919      -32.316147
 H         -34.661045      -98.527473      -33.603573
 H         -33.496120      -98.528030      -29.237591
 H         -34.848515      -97.549263      -29.683960
 H         -33.005413      -97.658798      -31.645708
 H         -33.163353      -99.427078      -31.604517
