20
 generated by VMD
 C         -77.341042     -202.910828      -69.374268
 N         -77.670258     -203.747971      -68.610573
 H         -74.944290     -201.484650      -67.022552
 H         -76.960236     -202.231201      -70.072617
 C         -74.895882     -201.440109      -68.165657
 C         -75.198502     -200.010193      -68.540337
 C         -73.910492     -202.393005      -68.864380
 C         -74.692314     -199.529114      -69.872353
 C         -73.195107     -201.577942      -70.058128
 C         -74.114883     -200.604309      -70.752296
 H         -74.785568     -199.395706      -67.764709
 H         -76.312645     -199.720978      -68.399345
 H         -73.160309     -202.832596      -68.080742
 H         -74.533119     -203.227921      -69.219902
 H         -74.013832     -198.685364      -69.701591
 H         -75.477249     -198.945404      -70.310982
 H         -72.667854     -202.153641      -70.834869
 H         -72.284317     -201.054123      -69.674187
 H         -73.637367     -200.322235      -71.633789
 H         -74.854561     -201.384476      -71.163261
