20
 generated by VMD
 C         -20.045500      -50.076103       -9.565183
 N         -19.743649      -51.231079       -9.642473
 H         -16.732658      -48.271164       -9.972188
 H         -20.091883      -49.148861       -9.508260
 C         -16.840496      -48.527634      -11.068188
 C         -15.739615      -49.397541      -11.608841
 C         -17.393034      -47.501984      -11.995122
 C         -16.079880      -49.991592      -12.985419
 C         -17.873524      -48.217869      -13.238559
 C         -16.770128      -49.050137      -13.933685
 H         -15.640226      -50.188904      -10.899115
 H         -14.722400      -48.929749      -11.654680
 H         -18.248196      -46.953274      -11.541162
 H         -16.604979      -46.805866      -12.318439
 H         -16.648607      -50.919235      -12.868752
 H         -15.173725      -50.392731      -13.456274
 H         -18.335934      -47.584545      -13.918466
 H         -18.726940      -48.884640      -12.934939
 H         -17.260851      -49.667107      -14.737989
 H         -16.082260      -48.329876      -14.471494
