20
 generated by VMD
 C         -65.369820     -177.391342      -56.403587
 N         -66.045868     -177.041931      -55.543221
 H         -64.532852     -175.120255      -59.350773
 H         -64.711098     -177.803299      -57.119873
 C         -64.317421     -174.114090      -59.394707
 C         -65.287735     -173.040894      -58.746532
 C         -63.676262     -173.554947      -60.663158
 C         -64.817543     -171.666702      -58.809563
 C         -63.080616     -172.099533      -60.498867
 C         -64.263206     -171.200668      -60.144714
 H         -65.515945     -173.378998      -57.701916
 H         -66.151459     -173.206863      -59.329147
 H         -62.923977     -174.206558      -60.999004
 H         -64.292007     -173.633621      -61.573185
 H         -64.164650     -171.435654      -57.988625
 H         -65.665771     -171.022293      -58.691036
 H         -62.580547     -171.761826      -61.382179
 H         -62.331558     -172.172577      -59.583630
 H         -63.934372     -170.190903      -59.881645
 H         -65.089699     -171.200928      -60.924175
