20
 generated by VMD
 C         -78.993515     -209.377045      -76.442200
 N         -79.629982     -208.974396      -77.279594
 H         -77.707825     -209.283203      -73.134094
 H         -78.384148     -209.753616      -75.554947
 C         -78.033470     -209.941422      -72.323784
 C         -76.955307     -210.203247      -71.276443
 C         -79.091316     -210.891861      -72.602493
 C         -77.485535     -210.939178      -70.083839
 C         -79.461594     -211.522186      -71.328873
 C         -78.441719     -212.038406      -70.488258
 H         -76.379883     -209.367157      -70.921043
 H         -76.363426     -210.923096      -71.795273
 H         -80.009132     -210.557510      -73.089241
 H         -78.725517     -211.624496      -73.289177
 H         -77.981987     -210.273560      -69.377083
 H         -76.631706     -211.324051      -69.528961
 H         -80.242676     -212.330795      -71.693039
 H         -80.140045     -210.870972      -70.819290
 H         -78.924355     -212.509399      -69.609146
 H         -77.859703     -212.818146      -71.047485
