20
 generated by VMD
 C         -22.435467      -54.980438      -15.739622
 N         -23.455734      -55.299648      -16.158777
 H         -19.009853      -54.690228      -15.421244
 H         -21.542418      -54.350765      -15.453348
 C         -19.483740      -55.559376      -14.863328
 C         -19.265537      -55.356609      -13.254689
 C         -19.072001      -56.860691      -15.484708
 C         -19.694065      -56.640030      -12.527299
 C         -19.537758      -58.005856      -14.638113
 C         -19.068016      -57.870907      -13.186800
 H         -19.862106      -54.528427      -12.824872
 H         -18.193974      -55.184811      -13.140092
 H         -19.474419      -56.919308      -16.558170
 H         -17.997173      -56.956253      -15.375937
 H         -20.801636      -56.767113      -12.573947
 H         -19.387169      -56.615574      -11.497769
 H         -19.379831      -58.988594      -15.158443
 H         -20.613091      -57.951252      -14.565518
 H         -19.408873      -58.795303      -12.692706
 H         -18.003365      -57.845573      -13.160359
