20
 generated by VMD
 C         -40.074108     -100.735985      -30.862837
 N         -40.411537      -99.909737      -31.599916
 H         -37.224136     -103.066910      -31.094488
 H         -39.825806     -101.648911      -30.295010
 C         -36.578339     -102.275612      -31.272741
 C         -36.492928     -101.625610      -32.666744
 C         -35.810169     -101.784462      -30.038416
 C         -36.167721     -100.135376      -32.463417
 C         -35.537766     -100.301949      -29.860199
 C         -35.345371      -99.612007      -31.263306
 H         -37.428017     -101.534645      -33.230057
 H         -35.764282     -102.075737      -33.344944
 H         -36.474911     -102.142967      -29.258661
 H         -34.849419     -102.394875      -29.855818
 H         -37.133217      -99.526070      -32.312572
 H         -35.704117      -99.682716      -33.383358
 H         -34.619354     -100.049683      -29.235525
 H         -36.383900      -99.837456      -29.407669
 H         -35.593678      -98.535988      -31.112743
 H         -34.264996      -99.717216      -31.587118
