20
 generated by VMD
 C         -13.645865      -45.338123       -5.739213
 N         -14.348249      -44.982582       -6.512744
 H         -15.174623      -44.350258       -9.040866
 H         -14.450181      -43.907814      -10.576815
 C         -15.372728      -44.256233      -10.127778
 C         -16.466019      -43.209663      -10.371409
 C         -15.735280      -45.625793      -10.704376
 C         -16.948725      -43.239456      -11.838075
 C         -16.187071      -45.723671      -12.176507
 C         -17.332182      -44.674622      -12.211008
 H         -16.088266      -42.251842      -10.005772
 H         -17.352732      -43.469246       -9.872219
 H         -14.851278      -46.255520      -10.611345
 H         -16.498940      -46.089527      -10.097361
 H         -16.121244      -42.897381      -12.498981
 H         -17.777613      -42.530025      -11.917807
 H         -16.557917      -46.751747      -12.441123
 H         -15.420732      -45.395065      -12.797174
 H         -17.716585      -44.626026      -13.276504
 H         -18.191080      -45.068512      -11.651690
