20
 generated by VMD
 C         -21.797329      -55.716557      -17.667852
 N         -20.660358      -55.451851      -18.043978
 H         -23.126831      -58.291630      -14.999138
 H         -22.625532      -55.951706      -17.161701
 C         -22.196642      -58.882164      -14.864613
 C         -21.471075      -58.875328      -13.589667
 C         -21.673162      -59.690536      -15.976129
 C         -21.013559      -60.260715      -13.202979
 C         -20.258980      -60.216915      -15.645636
 C         -20.182844      -60.962883      -14.289959
 H         -22.042366      -58.523205      -12.774447
 H         -20.669283      -58.137318      -13.660535
 H         -22.452625      -60.436584      -16.245251
 H         -21.485693      -58.892227      -16.738235
 H         -21.952072      -60.868546      -13.174885
 H         -20.641520      -60.365959      -12.155977
 H         -19.496349      -59.450157      -15.721133
 H         -20.117201      -61.036713      -16.364864
 H         -20.429150      -62.029816      -14.346881
 H         -19.101587      -60.908958      -13.972429
