20
 generated by VMD
 C          -3.133955      -17.574778        2.580439
 N          -3.069645      -18.036900        1.566724
 H          -5.294547      -19.641912        0.990526
 H          -5.507453      -20.309591       -0.666615
 C          -5.864264      -19.500860        0.026251
 C          -5.524230      -18.209446       -0.726399
 C          -7.395533      -19.654997        0.226629
 C          -6.321942      -18.054691       -2.026832
 C          -8.120575      -19.419821       -1.119093
 C          -7.788480      -18.089502       -1.754686
 H          -4.446265      -18.143700       -0.964247
 H          -5.718941      -17.431051       -0.011541
 H          -7.626904      -20.716242        0.542726
 H          -7.716660      -18.948040        1.076651
 H          -6.056757      -18.870527       -2.747765
 H          -6.075541      -17.081825       -2.533562
 H          -9.211611      -19.524117       -0.937896
 H          -7.890646      -20.180992       -1.851076
 H          -8.356357      -18.065054       -2.683532
 H          -8.175557      -17.216190       -1.181060
