20
 generated by VMD
 C         -58.523613     -152.107498      -49.225601
 N         -59.652981     -152.177078      -49.630344
 H         -55.819782     -149.964844      -47.880943
 H         -57.429474     -152.104568      -48.977146
 C         -55.255062     -149.802994      -48.808117
 C         -54.445477     -150.919525      -49.465363
 C         -54.994053     -148.344681      -49.086121
 C         -54.175537     -150.534256      -50.998550
 C         -54.799923     -147.982330      -50.527363
 C         -53.747070     -148.996872      -51.143600
 H         -55.131348     -151.781952      -49.340477
 H         -53.644947     -151.194733      -48.891945
 H         -55.795544     -147.700562      -48.693443
 H         -54.014599     -148.025650      -48.604034
 H         -55.097778     -150.632553      -51.593925
 H         -53.419189     -151.231384      -51.409580
 H         -54.454132     -146.897888      -50.769333
 H         -55.756245     -147.944260      -50.980824
 H         -53.579514     -148.799026      -52.183945
 H         -52.666901     -148.842331      -50.693623
