20
 generated by VMD
 C         -26.564312      -71.877815      -17.511673
 N         -26.737331      -72.737091      -16.739727
 H         -24.277349      -69.532707      -18.788040
 H         -26.416157      -71.188873      -18.245913
 C         -24.602610      -69.725685      -19.782242
 C         -24.122091      -70.987930      -20.436054
 C         -25.727421      -68.964272      -20.467964
 C         -25.085495      -71.697220      -21.127668
 C         -26.779274      -69.833237      -21.231812
 C         -25.988096      -70.856010      -21.937126
 H         -23.699696      -71.440308      -19.510763
 H         -23.254871      -70.681465      -21.173586
 H         -26.297709      -68.272705      -19.779247
 H         -25.236397      -68.333054      -21.185015
 H         -25.786356      -72.288864      -20.546801
 H         -24.556389      -72.473770      -21.733288
 H         -27.322203      -69.114639      -21.861284
 H         -27.574432      -70.207100      -20.582205
 H         -26.758337      -71.480453      -22.473709
 H         -25.288256      -70.445610      -22.688129
