20
 generated by VMD
 C         -41.111614     -102.495636      -35.023586
 N         -41.517624     -103.022202      -35.964375
 H         -39.634212     -104.077011      -32.491249
 H         -40.378685     -102.076027      -34.287235
 C         -38.745735     -104.855171      -32.374313
 C         -37.409737     -104.309967      -32.964684
 C         -38.740864     -106.195984      -31.907745
 C         -36.409561     -104.311615      -31.861780
 C         -37.828201     -106.146278      -30.613853
 C         -36.353054     -105.623627      -31.095800
 H         -37.723785     -103.369232      -33.353504
 H         -37.094326     -105.032516      -33.758289
 H         -39.787926     -106.341537      -31.737514
 H         -38.390469     -106.976990      -32.632690
 H         -36.668121     -103.505226      -31.152483
 H         -35.470695     -104.191452      -32.396961
 H         -37.865067     -107.091988      -30.237402
 H         -38.066158     -105.478859      -29.741617
 H         -35.580830     -105.641319      -30.319407
 H         -35.991756     -106.418251      -31.846546
