20
 generated by VMD
 C         -70.435745     -181.228378      -63.872410
 N         -70.861877     -182.135147      -63.344460
 H         -67.967255     -181.522522      -60.956944
 H         -70.010788     -180.300552      -64.295906
 C         -67.181587     -180.802338      -60.803028
 C         -66.007469     -181.636627      -60.502914
 C         -67.353851     -179.326126      -60.490574
 C         -64.684196     -180.820801      -60.701801
 C         -66.075150     -178.548950      -60.915489
 C         -64.860184     -179.303192      -60.275082
 H         -66.029335     -182.627792      -60.934368
 H         -65.983170     -182.026398      -59.472069
 H         -68.250626     -179.126709      -61.026909
 H         -67.618340     -179.296509      -59.350632
 H         -64.382523     -180.731842      -61.869427
 H         -63.851475     -181.359314      -60.101555
 H         -66.179558     -177.527740      -60.570686
 H         -65.976540     -178.540100      -62.004681
 H         -64.032593     -178.791748      -60.614601
 H         -64.783401     -179.324661      -59.148426
