20
 generated by VMD
 C         -72.814339     -198.866760      -65.663559
 N         -73.819153     -199.339905      -66.023674
 H         -71.033333     -196.204636      -67.550812
 H         -71.969299     -198.333923      -65.256775
 C         -72.077423     -196.446030      -67.675232
 C         -73.065605     -195.605179      -66.922981
 C         -72.434776     -197.005966      -69.040428
 C         -74.243874     -195.271744      -67.730133
 C         -73.864021     -197.424866      -69.221634
 C         -74.877480     -196.492828      -68.431610
 H         -72.725868     -194.630585      -66.595039
 H         -73.256058     -196.126099      -65.880089
 H         -72.328270     -196.216873      -69.744240
 H         -71.804008     -197.814240      -69.238075
 H         -73.943413     -194.598175      -68.520622
 H         -75.008675     -194.742477      -67.149712
 H         -73.994431     -198.511215      -69.123680
 H         -74.149467     -197.258194      -70.266670
 H         -75.794006     -196.338623      -68.903137
 H         -75.306747     -197.069931      -67.502762
