20
 generated by VMD
 C         -40.488647     -104.363052      -36.283787
 N         -39.580006     -104.956924      -36.728344
 H         -40.440109     -107.226044      -34.753437
 H         -41.441242     -103.905952      -36.165951
 C         -39.805412     -107.696083      -34.011726
 C         -38.692482     -106.789375      -33.504906
 C         -39.990547     -109.113319      -33.545654
 C         -38.533665     -106.898918      -31.992878
 C         -39.907322     -109.148590      -31.970648
 C         -38.643333     -108.482208      -31.542484
 H         -39.081676     -105.825577      -33.578987
 H         -37.838638     -107.005119      -34.109749
 H         -40.936775     -109.466164      -33.882191
 H         -39.238853     -109.585777      -34.184265
 H         -39.222786     -106.262184      -31.419935
 H         -37.593243     -106.452225      -31.762476
 H         -39.823433     -110.155937      -31.647341
 H         -40.764553     -108.675705      -31.457457
 H         -38.436253     -108.462509      -30.524303
 H         -37.791061     -109.053528      -32.010624
