20
 generated by VMD
 C         -56.291389     -150.029999      -46.722343
 N         -56.969707     -150.487518      -45.933411
 H         -53.457500     -147.756256      -47.584549
 H         -55.527966     -149.740372      -47.462978
 C         -53.782581     -147.481979      -48.625591
 C         -52.958824     -147.872910      -49.829094
 C         -54.489811     -146.173386      -48.623867
 C         -53.919193     -147.707703      -50.989902
 C         -55.334866     -146.112045      -49.866249
 C         -54.579178     -146.298492      -51.052147
 H         -52.820168     -148.989151      -49.723648
 H         -52.028358     -147.253189      -49.760811
 H         -55.180653     -146.239044      -47.779678
 H         -53.811440     -145.339584      -48.702381
 H         -54.703587     -148.482910      -51.085537
 H         -53.275646     -147.703781      -51.945133
 H         -55.929985     -145.085510      -49.955605
 H         -56.167343     -146.776352      -49.811764
 H         -55.227833     -146.213669      -51.944267
 H         -53.758221     -145.554031      -51.129917
