20
 generated by VMD
 C         -41.220650     -101.397018      -32.604774
 N         -41.886337     -101.555626      -33.565147
 H         -38.566502     -103.422585      -32.563740
 H         -40.649616     -101.687675      -31.750528
 C         -37.714657     -102.862846      -32.116409
 C         -36.544582     -102.853882      -32.968479
 C         -37.499908     -103.081131      -30.508724
 C         -35.327423     -102.253784      -32.323929
 C         -36.219261     -102.473114      -30.015537
 C         -35.079693     -102.744667      -30.947453
 H         -36.848034     -102.257637      -33.857975
 H         -36.311844     -103.864723      -33.260914
 H         -38.325451     -102.716507      -29.888163
 H         -37.492863     -104.149742      -30.564402
 H         -35.490440     -101.096550      -32.336517
 H         -34.432842     -102.456284      -32.946785
 H         -36.006126     -102.958031      -29.089437
 H         -36.045879     -101.382431      -29.792370
 H         -34.176620     -102.270096      -30.626205
 H         -34.882908     -103.841629      -30.988539
