20
 generated by VMD
 C         -40.962841     -104.297318      -36.327763
 N         -41.887032     -105.010803      -36.376057
 H         -38.319817     -104.556946      -33.868908
 H         -40.150505     -103.617271      -36.412575
 C         -38.335220     -105.376015      -33.134502
 C         -37.204010     -105.688293      -32.262646
 C         -39.340675     -106.477493      -33.332317
 C         -37.386314     -106.735924      -31.140059
 C         -39.434017     -107.587776      -32.161713
 C         -38.059303     -107.934891      -31.693954
 H         -36.787655     -104.843842      -31.725950
 H         -36.405331     -106.138535      -32.984188
 H         -40.331673     -106.123978      -33.387138
 H         -38.953045     -106.914581      -34.317574
 H         -38.077251     -106.174088      -30.517893
 H         -36.439850     -106.908318      -30.660622
 H         -40.003578     -108.363060      -32.534687
 H         -40.070393     -107.258339      -31.327635
 H         -38.160999     -108.539856      -30.739658
 H         -37.606464     -108.523094      -32.444839
