20
 generated by VMD
 C         -57.472866     -162.840652      -56.328598
 N         -57.134098     -162.250885      -57.292847
 H         -59.698917     -164.336716      -55.151974
 H         -57.872345     -163.365799      -55.439957
 C         -60.652977     -164.479309      -54.806602
 C         -60.953602     -164.433060      -53.384678
 C         -61.719807     -164.733963      -55.881874
 C         -62.321362     -163.872986      -53.068920
 C         -62.733742     -163.643753      -55.544128
 C         -63.384594     -163.817154      -54.158764
 H         -60.121021     -163.887024      -52.808155
 H         -61.021984     -165.485367      -53.077053
 H         -61.334324     -164.409119      -56.777061
 H         -62.037052     -165.798599      -55.874477
 H         -62.186787     -162.764893      -52.801800
 H         -62.730762     -164.272995      -52.076500
 H         -63.565239     -163.628647      -56.209915
 H         -62.403996     -162.666397      -55.644680
 H         -63.907814     -162.949097      -53.910496
 H         -63.923222     -164.725067      -54.016289
