20
 generated by VMD
 C         -12.760821      -27.033125       -2.512125
 N         -12.224232      -27.709951       -1.798453
 H         -10.525999      -26.471565       -4.460551
 H          -9.003626      -26.035803       -5.297491
 C          -9.445054      -26.559023       -4.416280
 C          -9.040339      -28.026655       -4.485437
 C          -8.779859      -25.855190       -3.246612
 C          -7.494094      -28.179485       -4.373311
 C          -7.255458      -25.981762       -3.221736
 C          -6.922866      -27.475803       -3.175293
 H          -9.521281      -28.367064       -5.463187
 H          -9.397790      -28.482399       -3.578723
 H          -8.983356      -24.778830       -3.210820
 H          -9.122649      -26.355463       -2.346543
 H          -7.056408      -27.655237       -5.235799
 H          -7.218486      -29.272667       -4.372492
 H          -6.706792      -25.469309       -2.444788
 H          -6.851859      -25.666447       -4.221647
 H          -5.838830      -27.663795       -3.081165
 H          -7.363441      -27.873890       -2.277159
