20
 generated by VMD
 C         -18.123224      -48.565624       -7.348982
 N         -18.629665      -49.085247       -6.504608
 H         -16.179604      -48.129326      -10.143371
 H         -15.922853      -49.131123      -11.575892
 C         -16.260120      -48.081070      -11.267929
 C         -15.325018      -47.043209      -11.811172
 C         -17.675524      -47.663761      -11.679872
 C         -15.288183      -47.173405      -13.376621
 C         -17.831081      -47.354645      -13.193582
 C         -16.648666      -46.624146      -13.809052
 H         -14.305362      -47.124844      -11.455900
 H         -15.606236      -46.075275      -11.359211
 H         -18.410763      -48.411053      -11.430429
 H         -17.886595      -46.754025      -11.171008
 H         -15.184546      -48.242218      -13.633635
 H         -14.530088      -46.529068      -13.859701
 H         -18.823870      -46.882126      -13.402266
 H         -17.891642      -48.259960      -13.771534
 H         -16.709724      -46.693192      -14.939726
 H         -16.673964      -45.510803      -13.528139
