20
 generated by VMD
 C         -69.167099     -180.374832      -60.715008
 N         -69.545830     -181.438202      -60.374043
 H         -67.332344     -177.855057      -59.553493
 H         -68.739502     -179.433304      -61.046276
 C         -66.351845     -177.372360      -59.871700
 C         -65.821648     -177.523865      -61.221081
 C         -65.360252     -177.232239      -58.813828
 C         -64.966896     -176.356308      -61.736839
 C         -64.383614     -176.057419      -59.227619
 C         -63.733166     -176.208374      -60.682907
 H         -66.775940     -177.473053      -61.797478
 H         -65.274193     -178.528000      -61.355392
 H         -65.873291     -177.142960      -57.866676
 H         -64.807785     -178.220413      -58.750629
 H         -65.478218     -175.406158      -61.689732
 H         -64.755760     -176.303482      -62.784313
 H         -63.657906     -175.737595      -58.409363
 H         -64.971832     -175.127625      -59.313046
 H         -63.387074     -175.222244      -60.881542
 H         -63.053928     -177.036789      -60.900581
