20
 generated by VMD
 C         -47.901627     -134.656540      -46.604588
 N         -47.942524     -134.430466      -47.754532
 H         -50.252357     -134.496857      -44.933666
 H         -48.115959     -135.083710      -45.598267
 C         -50.633495     -135.387634      -44.513283
 C         -51.136417     -136.605698      -45.206097
 C         -51.189613     -135.208328      -43.148972
 C         -51.126987     -137.902390      -44.390079
 C         -51.036076     -136.543549      -42.265564
 C         -51.757816     -137.646942      -42.965157
 H         -50.646461     -136.824310      -46.131744
 H         -52.215736     -136.614182      -45.440804
 H         -50.601700     -134.480469      -42.456535
 H         -52.197014     -134.763306      -43.227528
 H         -50.065037     -138.199295      -44.194950
 H         -51.512089     -138.824570      -44.926807
 H         -51.528744     -136.319733      -41.369438
 H         -50.000820     -136.786316      -42.085056
 H         -51.578575     -138.673157      -42.449306
 H         -52.883327     -137.313416      -43.122974
