20
 generated by VMD
 C         -79.490387     -206.299164      -75.026588
 N         -79.666100     -206.422760      -73.876389
 H         -78.559288     -206.845062      -71.224152
 H         -79.590805     -206.354736      -76.064323
 C         -77.642891     -206.698013      -70.713669
 C         -76.536774     -205.738480      -71.247391
 C         -77.301857     -207.925476      -69.842293
 C         -75.304871     -205.785492      -70.398705
 C         -75.961884     -207.821014      -69.132446
 C         -74.994911     -207.149734      -70.055649
 H         -77.082359     -204.834274      -71.488297
 H         -76.143379     -206.106400      -72.221085
 H         -78.033043     -208.227509      -69.120461
 H         -77.139526     -208.761032      -70.547653
 H         -75.344528     -205.234909      -69.438164
 H         -74.418434     -205.220062      -70.870712
 H         -75.613434     -208.821106      -68.666603
 H         -76.160545     -207.221573      -68.267952
 H         -74.049774     -207.238327      -69.554718
 H         -74.751274     -207.822906      -70.927246
