20
 generated by VMD
 C         -18.196974      -49.296822       -8.302310
 N         -19.153469      -49.848373       -8.338144
 H         -16.380463      -47.704411       -9.880216
 H         -16.930693      -49.019367      -10.808234
 C         -16.587038      -48.011803      -10.908515
 C         -15.377471      -47.926380      -11.822158
 C         -17.743444      -47.212025      -11.562145
 C         -15.718158      -48.640522      -13.079759
 C         -17.995283      -47.572487      -13.019587
 C         -16.764006      -47.857235      -13.875632
 H         -14.437274      -48.331810      -11.474002
 H         -15.134935      -46.845444      -11.931597
 H         -18.646744      -47.510647      -10.992685
 H         -17.587662      -46.130829      -11.420184
 H         -16.128664      -49.608440      -12.786494
 H         -14.848111      -48.799118      -13.716600
 H         -18.648815      -46.760628      -13.390044
 H         -18.667553      -48.490864      -13.076241
 H         -17.035023      -48.484585      -14.717711
 H         -16.414154      -46.930458      -14.264812
