20
 generated by VMD
 C         -28.996483      -88.180099      -25.249382
 N         -28.740017      -87.524406      -26.220551
 H         -31.385065      -89.849556      -27.261559
 H         -29.235851      -88.828415      -24.469437
 C         -32.235729      -89.255966      -26.938726
 C         -32.797047      -89.130463      -25.608902
 C         -33.125969      -89.193420      -28.141285
 C         -33.797989      -87.974915      -25.580294
 C         -33.996510      -87.839684      -28.024158
 C         -34.754139      -87.992126      -26.780548
 H         -31.945290      -89.113708      -24.886263
 H         -33.188972      -90.080765      -25.187399
 H         -32.557655      -89.298599      -29.110617
 H         -33.914406      -89.916451      -28.221142
 H         -33.251167      -87.063004      -25.622204
 H         -34.329720      -88.156158      -24.642838
 H         -34.683262      -87.785072      -28.888247
 H         -33.400288      -86.869408      -27.962620
 H         -35.347221      -87.150719      -26.618176
 H         -35.425438      -88.806335      -26.805330
