20
 generated by VMD
 C         -29.801304      -79.535439      -26.414391
 N         -30.478165      -78.788826      -25.841902
 H         -28.337254      -83.112541      -25.615353
 H         -29.158556      -80.200195      -26.857714
 C         -28.991398      -83.056534      -24.691015
 C         -28.608965      -82.068214      -23.684366
 C         -29.923624      -84.100502      -24.279827
 C         -29.814377      -81.585007      -22.883888
 C         -31.110378      -83.611588      -23.311712
 C         -30.505198      -82.714249      -22.165598
 H         -28.191025      -81.142593      -24.137304
 H         -27.869522      -82.535469      -22.978104
 H         -30.411797      -84.473694      -25.107857
 H         -29.253357      -84.873795      -23.858461
 H         -30.683542      -81.090187      -23.382643
 H         -29.454000      -80.701118      -22.182852
 H         -31.612061      -84.419708      -22.870520
 H         -31.909166      -83.070595      -23.894457
 H         -31.257643      -82.246239      -21.533121
 H         -29.760530      -83.303604      -21.645395
