20
 generated by VMD
 C         -70.483498     -198.694885      -64.285461
 N         -70.081131     -198.362656      -65.309204
 H         -72.747482     -196.629044      -66.553482
 H         -70.804131     -199.152695      -63.331890
 C         -73.219559     -195.808716      -67.057404
 C         -73.294243     -194.484009      -66.481606
 C         -74.172905     -196.318420      -68.101517
 C         -73.238182     -193.476624      -67.690681
 C         -74.865425     -195.121567      -68.799339
 C         -73.853584     -193.960464      -69.095245
 H         -72.503830     -194.331802      -65.707550
 H         -74.236618     -194.391800      -66.044418
 H         -73.762474     -197.114914      -68.789284
 H         -75.055183     -196.878281      -67.636314
 H         -72.172981     -193.337097      -67.868523
 H         -73.752029     -192.550125      -67.322983
 H         -75.753044     -194.711304      -68.300308
 H         -75.222404     -195.356964      -69.769020
 H         -73.075890     -194.282349      -69.723763
 H         -74.236526     -192.919495      -69.570091
