20
 generated by VMD
 C         -22.059713      -55.213696      -17.350456
 N         -22.434008      -55.325748      -18.441185
 H         -21.178829      -56.278168      -14.047196
 H         -21.840010      -54.674690      -16.442106
 C         -20.868670      -57.297428      -14.182088
 C         -20.945148      -58.255035      -12.845564
 C         -20.017929      -57.890663      -15.277599
 C         -20.853748      -59.808319      -13.185594
 C         -19.944595      -59.427692      -15.402956
 C         -19.656590      -60.149815      -14.063627
 H         -21.882576      -58.027206      -12.255799
 H         -20.084063      -58.000721      -12.206341
 H         -20.412029      -57.376442      -16.180782
 H         -18.975046      -57.556610      -15.142949
 H         -21.772812      -60.126919      -13.711109
 H         -20.881918      -60.393005      -12.289536
 H         -19.115616      -59.714733      -16.080278
 H         -20.856049      -59.826550      -15.807119
 H         -19.560703      -61.226887      -14.281473
 H         -18.819237      -59.784996      -13.559464
