20
 generated by VMD
 C         -11.813210      -26.466637       -0.321380
 N         -12.731844      -26.315861       -0.921678
 H         -10.183384      -26.311634       -3.689701
 H          -9.317086      -25.601702       -4.996011
 C          -9.178468      -26.116726       -4.042440
 C          -8.298882      -27.332136       -4.168237
 C          -8.582945      -25.123621       -3.058715
 C          -6.889307      -26.992659       -4.579907
 C          -7.112583      -24.813675       -3.455192
 C          -6.301647      -26.087969       -3.541538
 H          -8.680263      -28.065779       -4.970586
 H          -8.272335      -27.774977       -3.128522
 H          -9.244265      -24.206306       -3.060783
 H          -8.542826      -25.518923       -2.081698
 H          -6.994041      -26.386620       -5.494645
 H          -6.293704      -27.894773       -4.716374
 H          -6.724838      -24.086298       -2.731331
 H          -7.084517      -24.351488       -4.467489
 H          -5.272741      -25.764330       -3.776787
 H          -6.360114      -26.550055       -2.538013
