20
 generated by VMD
 C         -33.612125      -96.503059      -25.738253
 N         -34.616505      -96.522522      -26.361788
 H         -35.035671      -94.363907      -27.403715
 H         -32.709785      -96.545609      -25.224726
 C         -34.955780      -94.107780      -28.436405
 C         -35.942024      -94.787422      -29.307703
 C         -33.606407      -93.933601      -29.003168
 C         -36.071152      -93.904617      -30.550726
 C         -33.794434      -92.933372      -30.197905
 C         -34.707401      -93.595505      -31.272711
 H         -36.953529      -94.969566      -28.913492
 H         -35.549496      -95.735970      -29.506948
 H         -33.111591      -93.396706      -28.185982
 H         -32.990383      -94.746803      -29.276611
 H         -36.477142      -92.914505      -30.200100
 H         -36.723866      -94.376480      -31.294113
 H         -32.681675      -92.876053      -30.479422
 H         -34.208096      -92.001427      -29.883104
 H         -34.847912      -92.847504      -32.232822
 H         -34.420139      -94.523598      -31.648283
