20
 generated by VMD
 C         -44.816315     -122.428947      -35.652454
 N         -44.969570     -123.266830      -34.849400
 H         -45.112484     -122.556580      -38.695633
 H         -44.757092     -121.617294      -36.298351
 C         -44.910107     -121.771263      -39.390465
 C         -43.445393     -121.403786      -39.680553
 C         -46.089188     -120.800911      -39.716988
 C         -43.301292     -120.358826      -40.717278
 C         -45.748425     -119.663956      -40.627361
 C         -44.334766     -119.195808      -40.482285
 H         -42.938713     -122.327682      -39.876705
 H         -42.878956     -120.953873      -38.849445
 H         -47.089645     -121.332870      -40.119980
 H         -46.331001     -120.374908      -38.722752
 H         -43.672249     -120.952026      -41.597740
 H         -42.302040     -120.002357      -40.658840
 H         -46.445080     -118.793449      -40.538910
 H         -45.773586     -120.045532      -41.584351
 H         -44.154167     -118.382668      -41.274498
 H         -44.224880     -118.685486      -39.437019
