20
 generated by VMD
 C         -47.824871     -136.737564      -46.091404
 N         -47.092293     -136.505630      -46.923096
 H         -50.590019     -135.853943      -45.224270
 H         -48.293240     -136.940002      -45.158184
 C         -51.001888     -136.838745      -44.956821
 C         -51.446136     -137.879669      -46.118679
 C         -51.972820     -136.705139      -43.816723
 C         -52.109074     -139.170425      -45.609051
 C         -52.630241     -137.973633      -43.302094
 C         -53.178959     -138.821945      -44.475918
 H         -50.587040     -138.142014      -46.658340
 H         -52.175747     -137.266129      -46.785397
 H         -51.353016     -136.302841      -43.020279
 H         -52.679718     -136.020813      -44.312244
 H         -51.365601     -139.888321      -45.233986
 H         -52.587868     -139.717728      -46.469585
 H         -53.319351     -137.960205      -42.540562
 H         -51.790951     -138.625031      -42.953545
 H         -53.549000     -139.910416      -44.191990
 H         -53.956303     -138.223633      -44.972229
