20
 generated by VMD
 C         -22.077135      -67.272766      -16.490240
 N         -21.035891      -66.924713      -16.075558
 H         -24.189112      -65.030487      -18.149261
 H         -22.951315      -67.433754      -16.981230
 C         -24.486387      -66.005402      -18.525982
 C         -23.905651      -66.457809      -19.790619
 C         -25.974375      -66.194878      -18.233837
 C         -24.381905      -67.856216      -20.276087
 C         -26.181028      -67.678383      -18.468309
 C         -25.859894      -67.871552      -19.932737
 H         -22.833702      -66.326202      -19.656782
 H         -24.264441      -65.637558      -20.589314
 H         -26.433779      -65.888336      -17.288679
 H         -26.463736      -65.536552      -18.883793
 H         -23.706352      -68.657944      -19.800884
 H         -24.276529      -67.948761      -21.361963
 H         -27.325455      -67.831902      -18.357578
 H         -25.670025      -68.415024      -17.835451
 H         -26.077202      -68.940361      -20.095459
 H         -26.365381      -67.338142      -20.683971
