20
 generated by VMD
 C          -1.799378      -13.011901        0.529654
 N          -1.502678      -13.800774        1.249990
 H          -3.597212      -15.465234        1.815280
 H          -4.154828      -15.185685        0.218584
 C          -4.426287      -15.635989        1.163310
 C          -5.597589      -14.914580        1.728935
 C          -4.608998      -17.145433        0.872544
 C          -6.862757      -15.186972        0.989866
 C          -5.972188      -17.406757        0.209241
 C          -7.145046      -16.672512        0.858011
 H          -5.334121      -13.843794        1.756329
 H          -5.742211      -15.231371        2.756160
 H          -3.742941      -17.527939        0.190687
 H          -4.542686      -17.776548        1.829888
 H          -6.875700      -14.756333       -0.020907
 H          -7.698613      -14.670975        1.492097
 H          -6.158712      -18.493744        0.027879
 H          -5.821595      -17.029318       -0.814076
 H          -8.013023      -16.752579        0.207367
 H          -7.432135      -17.129747        1.814810
