20
 generated by VMD
 C         -11.085623      -33.531456       -9.389874
 N         -10.633134      -32.792728       -8.731968
 H         -12.156826      -35.794231       -7.900293
 H         -12.393783      -35.223255       -6.204548
 C         -12.525878      -36.113663       -6.902219
 C         -11.688630      -37.290012       -6.403931
 C         -14.031446      -36.390091       -7.150877
 C         -12.376312      -37.910522       -5.238822
 C         -14.669139      -37.211906       -6.003040
 C         -13.802335      -38.381916       -5.554202
 H         -10.685018      -36.938602       -6.144436
 H         -11.546942      -37.938931       -7.227784
 H         -14.567899      -35.433861       -7.242694
 H         -14.295007      -36.816891       -8.143388
 H         -12.356952      -37.211258       -4.404469
 H         -11.846657      -38.796116       -4.891531
 H         -15.653393      -37.500458       -6.227177
 H         -14.802544      -36.506393       -5.123802
 H         -14.257518      -38.912952       -4.667424
 H         -13.680666      -39.171352       -6.280641
