20
 generated by VMD
 C         -70.297134     -183.380814      -66.014862
 N         -69.265198     -182.873825      -65.933853
 H         -68.705635     -185.120804      -62.980690
 H         -71.217560     -183.878159      -66.150215
 C         -68.338509     -184.316803      -62.309608
 C         -68.261551     -184.791840      -60.858326
 C         -67.780624     -182.940079      -62.637554
 C         -67.344406     -183.871979      -59.868629
 C         -67.148453     -181.971512      -61.713623
 C         -67.470947     -182.395721      -60.280220
 H         -68.043404     -185.901764      -60.878178
 H         -69.220490     -184.782272      -60.318382
 H         -67.153381     -183.164841      -63.466953
 H         -68.552658     -182.353455      -63.059277
 H         -66.302902     -184.194077      -59.979702
 H         -67.611389     -184.063477      -58.833126
 H         -67.204124     -180.937225      -62.074718
 H         -66.078156     -182.031677      -61.643471
 H         -66.808037     -181.858795      -59.584591
 H         -68.425667     -181.923935      -60.092484
