20
 generated by VMD
 C         -72.708824     -199.236847      -65.489113
 N         -71.958199     -199.714813      -64.728622
 H         -71.199074     -196.102295      -67.218185
 H         -73.237511     -198.699509      -66.272118
 C         -72.135384     -195.718323      -67.647301
 C         -72.818169     -194.463684      -67.176041
 C         -72.605957     -196.407455      -68.955025
 C         -74.148949     -194.280136      -67.889320
 C         -74.108658     -196.635468      -68.911942
 C         -74.952461     -195.552826      -68.133202
 H         -72.304825     -193.547806      -67.397705
 H         -72.833870     -194.480637      -66.122581
 H         -72.378830     -195.765137      -69.837440
 H         -72.094177     -197.422760      -69.103081
 H         -73.933418     -193.690018      -68.840034
 H         -74.630615     -193.451904      -67.375534
 H         -74.411758     -197.613068      -68.549995
 H         -74.449158     -196.652481      -69.966042
 H         -75.962547     -195.271881      -68.513985
 H         -75.323189     -195.953140      -67.102402
