20
 generated by VMD
 C         -31.929642      -76.307404      -24.564753
 N         -31.620760      -76.757111      -25.559641
 H         -29.017086      -76.828926      -22.228893
 H         -32.086330      -75.807487      -23.575247
 C         -28.559258      -77.779289      -22.190788
 C         -27.578123      -78.084000      -23.241478
 C         -28.461267      -78.674370      -20.950577
 C         -26.085890      -78.123428      -22.723957
 C         -27.054985      -78.536964      -20.400833
 C         -26.072876      -79.151260      -21.509533
 H         -27.665802      -77.473480      -24.128801
 H         -27.920235      -79.021309      -23.688534
 H         -29.208942      -78.340515      -20.247717
 H         -28.917521      -79.666992      -21.246241
 H         -25.863392      -77.080017      -22.378332
 H         -25.421680      -78.507111      -23.528648
 H         -26.871864      -79.252922      -19.566170
 H         -26.840311      -77.475159      -20.087526
 H         -25.118759      -79.305443      -21.077497
 H         -26.500387      -80.094421      -21.918926
