20
 generated by VMD
 C         -38.481647     -113.761627      -35.543201
 N         -38.127171     -114.858276      -35.582062
 H         -41.363838     -115.175018      -36.016228
 H         -38.899452     -112.754311      -35.636902
 C         -42.201763     -114.671486      -36.428173
 C         -42.697952     -114.542984      -37.892918
 C         -43.416515     -114.527557      -35.507938
 C         -43.704426     -115.648544      -38.204227
 C         -44.687489     -115.277214      -35.895840
 C         -45.020493     -115.358467      -37.370071
 H         -41.756393     -114.674232      -38.572525
 H         -43.188484     -113.518288      -38.044682
 H         -43.150150     -114.887222      -34.459454
 H         -43.685173     -113.482918      -35.198811
 H         -43.360691     -116.661255      -37.870049
 H         -43.961178     -115.649788      -39.244690
 H         -45.582928     -114.878853      -35.213661
 H         -44.630886     -116.370682      -35.479813
 H         -45.874851     -116.176872      -37.563347
 H         -45.380531     -114.385780      -37.768085
