20
 generated by VMD
 C         -69.070641     -195.761703      -64.849152
 N         -68.595985     -196.764587      -65.177933
 H         -72.097260     -194.379578      -65.666618
 H         -69.840630     -194.986420      -64.607086
 C         -72.162415     -193.932175      -66.634758
 C         -72.189575     -192.432892      -66.692490
 C         -73.121758     -194.648163      -67.541702
 C         -73.600334     -191.927368      -66.424644
 C         -74.492409     -194.196457      -67.083916
 C         -74.606697     -192.720062      -67.256699
 H         -71.961823     -192.127121      -67.659645
 H         -71.349243     -192.107040      -66.015747
 H         -72.766060     -194.371063      -68.574005
 H         -72.999985     -195.785767      -67.363670
 H         -73.599213     -190.897888      -66.777756
 H         -73.934158     -191.963043      -65.390648
 H         -74.690811     -194.488724      -66.043564
 H         -75.275597     -194.701996      -67.696129
 H         -74.594849     -192.448380      -68.304108
 H         -75.670074     -192.500961      -66.862206
