20
 generated by VMD
 C         -79.073555     -207.350784      -75.527977
 N         -80.161484     -206.992279      -75.324539
 H         -77.605957     -208.995758      -73.472221
 H         -78.132278     -207.555023      -75.883873
 C         -77.386246     -208.967026      -72.358559
 C         -76.244164     -208.146027      -71.687744
 C         -78.076088     -210.000473      -71.555229
 C         -76.214455     -208.165863      -70.031860
 C         -78.238800     -209.621231      -70.062943
 C         -76.932808     -209.276169      -69.392693
 H         -76.423744     -207.118668      -72.095154
 H         -75.225883     -208.512009      -72.034416
 H         -79.058693     -210.200043      -71.966988
 H         -77.528137     -210.926834      -71.423859
 H         -76.938332     -207.353424      -69.904984
 H         -75.235306     -207.884720      -69.607391
 H         -78.683479     -210.402466      -69.507843
 H         -78.949226     -208.730057      -70.087746
 H         -76.802589     -209.036407      -68.364029
 H         -76.347267     -210.183289      -69.505676
