20
 generated by VMD
 C         -78.909966     -204.196198      -70.439552
 N         -79.884583     -204.751053      -70.560928
 H         -76.603790     -203.500153      -68.439713
 H         -77.999207     -203.686676      -70.232407
 C         -75.814766     -203.244171      -69.196632
 C         -75.814308     -201.959488      -69.971542
 C         -74.539299     -203.992157      -69.045250
 C         -74.396950     -201.561829      -70.651573
 C         -73.394730     -202.988800      -68.984741
 C         -73.234734     -202.393280      -70.405678
 H         -76.234741     -201.128174      -69.340630
 H         -76.528290     -202.224030      -70.747383
 H         -74.619888     -204.523438      -68.074387
 H         -74.455200     -204.924957      -69.673271
 H         -74.198151     -200.479263      -70.328835
 H         -74.529602     -201.470306      -71.752151
 H         -72.525978     -203.361160      -68.504417
 H         -73.706451     -202.257629      -68.162323
 H         -72.342300     -201.818726      -70.524475
 H         -72.982269     -203.149811      -71.095299
