20
 generated by VMD
 C         -29.474043      -89.939178      -25.222385
 N         -29.113138      -91.008766      -25.511841
 H         -32.271866      -91.641594      -27.324972
 H         -29.743526      -88.924881      -25.116484
 C         -33.052296      -90.899254      -27.514177
 C         -34.486938      -91.473183      -27.509296
 C         -32.857918      -89.605156      -28.354822
 C         -35.431236      -90.399879      -27.155634
 C         -33.922737      -88.570244      -28.196474
 C         -35.346943      -89.231712      -28.183298
 H         -34.637348      -92.276962      -26.782663
 H         -34.662659      -91.764107      -28.487165
 H         -31.830240      -89.387238      -28.271210
 H         -32.986042      -89.943642      -29.397587
 H         -35.252075      -90.012299      -26.104687
 H         -36.561867      -90.653542      -27.201534
 H         -33.775440      -87.838264      -29.040905
 H         -33.765144      -88.116409      -27.193769
 H         -36.065174      -88.467636      -27.738123
 H         -35.651390      -89.492699      -29.268673
