20
 generated by VMD
 C         -68.330246     -189.450211      -67.198662
 N         -67.186394     -189.162399      -67.079353
 H         -68.637459     -188.518372      -63.828907
 H         -69.334419     -189.770096      -67.210228
 C         -69.683189     -188.618927      -63.512730
 C         -70.357567     -189.898941      -63.541904
 C         -70.484138     -187.307281      -63.008549
 C         -71.582184     -189.733032      -64.380562
 C         -71.900505     -187.273315      -63.585297
 C         -72.488182     -188.682877      -63.666687
 H         -70.604851     -190.257568      -62.457825
 H         -69.661514     -190.659683      -63.997375
 H         -70.547424     -187.310867      -61.901020
 H         -69.928619     -186.439728      -63.277397
 H         -72.108612     -190.635574      -64.475716
 H         -71.381622     -189.391800      -65.435684
 H         -71.980453     -186.768845      -64.586929
 H         -72.359192     -186.514465      -62.998535
 H         -72.691765     -189.062943      -62.570541
 H         -73.469841     -188.748856      -64.120605
