20
 generated by VMD
 C         -69.803123     -183.194687      -65.757393
 N         -70.860466     -182.734833      -65.829384
 H         -68.200134     -183.552490      -63.126362
 H         -68.804207     -183.684586      -65.725967
 C         -67.685707     -183.252991      -62.222160
 C         -67.751038     -183.905945      -60.868080
 C         -67.261772     -181.764084      -62.289009
 C         -66.818825     -183.268433      -59.809391
 C         -66.614426     -181.132416      -61.008667
 C         -67.089531     -181.766403      -59.730083
 H         -67.605942     -184.975433      -60.935097
 H         -68.700020     -183.733261      -60.463509
 H         -66.635345     -181.727493      -63.116299
 H         -67.996033     -180.971512      -62.572716
 H         -65.667526     -183.328079      -60.138805
 H         -66.958557     -183.773956      -58.820633
 H         -66.714737     -180.063522      -61.149586
 H         -65.536469     -181.320404      -60.955563
 H         -66.465927     -181.390518      -58.989277
 H         -68.111519     -181.426117      -59.492695
