20
 generated by VMD
 C         -49.572704     -141.563965      -45.693619
 N         -49.626381     -142.371552      -44.854130
 H         -51.660198     -138.590225      -46.228573
 H         -49.739315     -140.882446      -46.517109
 C         -52.257427     -139.507935      -46.521835
 C         -52.860668     -139.590836      -47.826466
 C         -52.921886     -140.231110      -45.314339
 C         -53.077198     -141.074738      -48.155159
 C         -53.310543     -141.576218      -45.744270
 C         -53.907497     -141.803711      -47.167400
 H         -52.006268     -139.199142      -48.449821
 H         -53.775536     -138.992432      -47.995110
 H         -52.298111     -140.390488      -44.477551
 H         -53.834526     -139.753662      -45.172531
 H         -52.078545     -141.609085      -48.241699
 H         -53.448563     -141.051834      -49.258797
 H         -54.024494     -142.055191      -45.135815
 H         -52.347698     -142.087051      -45.663593
 H         -53.884331     -142.973022      -47.382404
 H         -54.966949     -141.389709      -47.313622
