20
 generated by VMD
 C         -13.054577      -28.591398       -5.322606
 N         -12.808826      -27.539162       -5.551566
 H         -11.196446      -30.972221       -3.131657
 H         -11.113890      -29.355314       -3.981192
 C         -10.556147      -30.209637       -3.604592
 C          -9.744756      -30.955669       -4.687027
 C          -9.561215      -29.686022       -2.549112
 C          -8.682499      -30.018133       -5.346668
 C          -8.587037      -28.728989       -3.136383
 C          -7.765224      -29.372923       -4.277282
 H         -10.476589      -31.245487       -5.429244
 H          -9.239231      -31.879343       -4.295676
 H         -10.190221      -29.162767       -1.788456
 H          -9.107603      -30.539789       -2.056848
 H          -9.263483      -29.269957       -5.914597
 H          -8.015615      -30.567944       -6.032161
 H          -7.891648      -28.377476       -2.358570
 H          -9.053224      -27.828693       -3.546287
 H          -7.270078      -28.458467       -4.679700
 H          -7.101090      -30.142336       -3.878392
