20
 generated by VMD
 C         -13.405948      -28.742374       -6.544695
 N         -13.172534      -28.810448       -7.632379
 H         -11.980418      -30.718391       -4.899458
 H         -10.696135      -29.627428       -4.496620
 C         -10.930661      -30.760199       -4.599986
 C         -10.127955      -31.536280       -5.657926
 C         -10.872209      -31.494862       -3.279780
 C          -8.689583      -31.813934       -5.122212
 C          -9.517446      -31.577066       -2.691939
 C          -8.618884      -32.340366       -3.647359
 H         -10.247757      -30.881742       -6.547303
 H         -10.554752      -32.500584       -5.900936
 H         -11.505727      -30.982502       -2.579805
 H         -11.328439      -32.496811       -3.376089
 H          -8.030469      -30.918114       -5.230444
 H          -8.289239      -32.597832       -5.815607
 H          -9.503470      -32.121002       -1.712289
 H          -9.125272      -30.592926       -2.513767
 H          -7.586069      -32.238674       -3.228017
 H          -8.794461      -33.473003       -3.556286
