20
 generated by VMD
 C         -40.863487     -103.949677      -36.990051
 N         -40.921021     -104.867218      -36.301178
 H         -39.751667     -105.478661      -33.948242
 H         -40.619652     -103.253540      -37.736538
 C         -39.218075     -106.323746      -33.444065
 C         -37.878716     -106.077194      -32.717972
 C         -39.681709     -107.685135      -33.440449
 C         -37.652046     -106.848801      -31.345129
 C         -39.545925     -108.298241      -32.047092
 C         -38.092651     -108.309174      -31.400196
 H         -37.771088     -104.992897      -32.577103
 H         -36.973839     -106.507446      -33.263184
 H         -40.678112     -107.744110      -33.803242
 H         -39.206017     -108.441399      -33.993729
 H         -38.259663     -106.181015      -30.639122
 H         -36.546139     -106.718651      -31.164755
 H         -39.827354     -109.400108      -32.006058
 H         -40.213383     -107.891968      -31.296295
 H         -38.160133     -108.864540      -30.492601
 H         -37.334026     -108.869080      -32.101788
