20
 generated by VMD
 C          -3.593071      -17.501991        2.073797
 N          -3.129441      -18.462622        2.403404
 H          -5.653532      -20.488663        0.506833
 H          -6.070198      -20.955130       -1.278964
 C          -6.167682      -20.213619       -0.447678
 C          -5.387466      -18.952192       -0.929708
 C          -7.681369      -20.031233       -0.145882
 C          -6.216372      -18.440815       -2.185454
 C          -8.429708      -19.337662       -1.282178
 C          -7.646990      -18.160046       -1.761546
 H          -4.309288      -19.142902       -1.307217
 H          -5.357062      -18.205832       -0.161855
 H          -8.188314      -20.970266        0.104466
 H          -7.763143      -19.456825        0.776231
 H          -6.263128      -19.246140       -2.908781
 H          -5.787587      -17.577372       -2.638686
 H          -9.457979      -19.125372       -0.991496
 H          -8.462985      -20.029383       -2.083021
 H          -8.167519      -17.608719       -2.551389
 H          -7.541534      -17.374304       -0.965153
