20
 generated by VMD
 C         -17.750572      -48.333286       -6.851197
 N         -17.159302      -47.446762       -6.520284
 H         -16.404579      -48.663742      -10.560788
 H         -15.623323      -48.502239      -12.257675
 C         -16.251890      -48.071293      -11.491131
 C         -15.618533      -46.704163      -11.137425
 C         -17.589279      -47.928944      -12.218253
 C         -15.407859      -45.946606      -12.446042
 C         -17.580824      -47.117798      -13.518053
 C         -16.778992      -45.830658      -13.153387
 H         -14.623624      -46.779675      -10.673773
 H         -16.228230      -46.120636      -10.425591
 H         -17.976160      -48.969078      -12.513288
 H         -18.385458      -47.593628      -11.500362
 H         -14.703275      -46.515938      -13.065644
 H         -14.913515      -44.963764      -12.290629
 H         -18.590263      -46.791180      -13.778106
 H         -17.183086      -47.723297      -14.361393
 H         -16.636681      -45.241539      -14.036724
 H         -17.395859      -45.202980      -12.563742
