20
 generated by VMD
 C         -78.061234     -204.224655      -69.661766
 N         -79.074417     -203.683487      -69.991028
 H         -76.223000     -202.760986      -67.864120
 H         -77.117050     -204.636978      -69.351791
 C         -75.431190     -202.435577      -68.641983
 C         -75.753601     -201.254684      -69.470314
 C         -74.292473     -203.359970      -68.960815
 C         -74.907982     -201.148056      -70.634132
 C         -73.030441     -202.505844      -69.506210
 C         -73.442650     -201.231873      -70.338112
 H         -75.537270     -200.441406      -68.800392
 H         -76.883850     -201.284286      -69.649719
 H         -74.100792     -203.984940      -68.097084
 H         -74.523949     -204.211853      -69.620003
 H         -75.098579     -200.276932      -71.234482
 H         -75.092407     -201.997971      -71.257431
 H         -72.321289     -203.224411      -70.002106
 H         -72.428162     -202.065323      -68.613243
 H         -73.049088     -200.149277      -69.894775
 H         -72.966080     -201.275879      -71.323578
