20
 generated by VMD
 C         -60.156410     -153.335632      -51.803135
 N         -60.267078     -152.212402      -51.361015
 H         -57.176769     -153.932114      -49.821884
 H         -60.051857     -154.378677      -52.151733
 C         -56.434830     -153.205750      -50.121838
 C         -55.193424     -153.312592      -49.277084
 C         -56.728439     -151.850861      -50.779079
 C         -54.012791     -152.823547      -50.342049
 C         -55.569366     -151.165024      -51.534630
 C         -54.250862     -151.365112      -50.784729
 H         -54.946178     -154.412064      -49.032692
 H         -55.080151     -152.872345      -48.240479
 H         -57.462795     -151.978271      -51.552868
 H         -57.086529     -151.175354      -49.967670
 H         -53.929554     -153.415100      -51.282303
 H         -53.091423     -152.885239      -49.857620
 H         -55.657028     -150.142181      -51.674118
 H         -55.347633     -151.646179      -52.563568
 H         -53.459232     -151.006104      -51.372334
 H         -54.254543     -150.760620      -49.759422
