20
 generated by VMD
 C         -19.821247      -60.139355      -17.776388
 N         -19.600466      -59.032276      -18.035904
 H         -22.713696      -59.797581      -15.844911
 H         -19.874935      -61.226299      -17.373520
 C         -22.947323      -60.864250      -16.012205
 C         -23.224377      -61.490883      -17.318256
 C         -23.316099      -61.621922      -14.676660
 C         -22.811882      -63.004898      -17.222082
 C         -22.669821      -62.953262      -14.806609
 C         -23.273935      -63.722561      -15.946053
 H         -22.810356      -60.873161      -18.199986
 H         -24.341560      -61.524620      -17.485167
 H         -22.945967      -61.111095      -13.727840
 H         -24.433096      -61.742149      -14.814481
 H         -21.740524      -63.138859      -17.266653
 H         -23.069384      -63.564262      -18.114124
 H         -22.911600      -63.542984      -13.883940
 H         -21.574713      -62.844780      -15.038613
 H         -22.953508      -64.788353      -15.918347
 H         -24.393761      -63.783154      -15.864986
