20
 generated by VMD
 C         -12.823072      -28.693937       -5.945983
 N         -12.912418      -27.707018       -5.422556
 H         -11.555945      -31.167858       -3.606196
 H         -11.087399      -29.613966       -4.489469
 C         -10.754566      -30.567142       -3.999238
 C          -9.872641      -31.336565       -4.934312
 C         -10.021801      -30.067444       -2.732155
 C          -8.618765      -30.508696       -5.268322
 C          -8.879345      -29.148685       -3.191862
 C          -7.904012      -29.862034       -4.109448
 H         -10.375330      -31.502945       -5.958043
 H          -9.565693      -32.273579       -4.476411
 H         -10.742252      -29.540731       -2.095734
 H          -9.632234      -30.959845       -2.134705
 H          -8.937707      -29.693687       -5.946461
 H          -7.940633      -31.240324       -5.770075
 H          -8.378154      -28.706394       -2.314637
 H          -9.327648      -28.358999       -3.790108
 H          -7.101957      -29.256329       -4.468731
 H          -7.481336      -30.644943       -3.477706
