20
 generated by VMD
 C         -50.653904     -130.006989      -45.090443
 N         -51.430542     -129.187836      -44.670601
 H         -48.791336     -129.389084      -42.907387
 H         -49.826347     -130.644974      -45.496147
 C         -48.281189     -129.565918      -42.039860
 C         -47.945599     -131.040726      -41.581436
 C         -47.463680     -128.361725      -41.541218
 C         -46.489609     -131.272354      -41.157684
 C         -45.991074     -128.701401      -41.238449
 C         -45.942829     -130.013779      -40.449226
 H         -48.184940     -131.798553      -42.312160
 H         -48.535751     -131.256088      -40.725540
 H         -47.623135     -127.578354      -42.348186
 H         -47.903965     -128.055908      -40.589092
 H         -45.727234     -131.476120      -41.932140
 H         -46.501728     -132.213196      -40.562492
 H         -45.542591     -127.826775      -40.618427
 H         -45.362137     -128.892975      -42.105404
 H         -44.848949     -130.133270      -40.307434
 H         -46.394455     -129.719467      -39.516602
