20
 generated by VMD
 C         -49.497406     -127.609283      -39.633694
 N         -50.485359     -127.503914      -40.264000
 H         -47.173168     -127.214272      -42.427368
 H         -48.780525     -127.740501      -38.818954
 C         -46.524200     -126.639465      -41.853714
 C         -45.752506     -127.153931      -40.772049
 C         -46.599365     -125.187317      -41.988033
 C         -44.387745     -126.386147      -40.378727
 C         -45.369564     -124.317863      -41.639046
 C         -44.660130     -124.886536      -40.319401
 H         -45.386047     -128.193680      -41.036705
 H         -46.294456     -127.311554      -39.860226
 H         -46.848713     -125.079018      -43.047596
 H         -47.391636     -124.996620      -41.156376
 H         -43.629887     -126.695557      -41.089710
 H         -44.162342     -126.721909      -39.364365
 H         -45.699661     -123.357635      -41.468006
 H         -44.803749     -124.208710      -42.538006
 H         -43.779861     -124.283401      -40.156521
 H         -45.435051     -124.539330      -39.563797
