20
 generated by VMD
 C         -30.438007      -74.379906      -20.970078
 N         -30.712456      -75.447617      -20.547762
 H         -27.724482      -74.674332      -19.706984
 H         -30.279444      -73.586243      -21.612761
 C         -26.842756      -74.565384      -20.402178
 C         -26.327398      -75.716942      -21.106813
 C         -25.932377      -73.361374      -20.360296
 C         -26.006878      -75.379791      -22.531910
 C         -25.590748      -72.918167      -21.820822
 C         -25.071062      -74.117836      -22.637396
 H         -27.016922      -76.451752      -21.164968
 H         -25.461273      -76.177521      -20.668596
 H         -26.397766      -72.528214      -19.875450
 H         -25.083345      -73.688133      -19.840351
 H         -26.923435      -75.247139      -23.156355
 H         -25.528828      -76.332207      -22.880901
 H         -24.719725      -72.166336      -21.672178
 H         -26.502377      -72.564278      -22.324898
 H         -25.156815      -73.854874      -23.711702
 H         -23.988544      -74.265396      -22.513008
