20
 generated by VMD
 C         -24.762884      -70.349792      -16.474846
 N         -24.972355      -70.870407      -15.440916
 H         -23.740387      -67.643921      -19.159937
 H         -24.807709      -69.884132      -17.405857
 C         -24.345385      -68.480873      -19.590576
 C         -23.804434      -69.231102      -20.727386
 C         -25.780254      -68.157921      -19.652723
 C         -24.788160      -70.159096      -21.384159
 C         -26.782555      -69.206429      -20.263563
 C         -26.257450      -69.602089      -21.598906
 H         -22.959137      -69.877380      -20.407227
 H         -23.450909      -68.575729      -21.639910
 H         -26.050686      -67.714302      -18.681471
 H         -25.805214      -67.185333      -20.269863
 H         -24.801180      -71.179672      -20.988634
 H         -24.534264      -70.345161      -22.444506
 H         -27.725729      -68.613937      -20.372257
 H         -26.918789      -69.989853      -19.454060
 H         -26.826103      -70.455696      -21.967899
 H         -26.339396      -68.723640      -22.251684
