20
 generated by VMD
 C         -61.195984     -156.190323      -55.009315
 N         -60.321369     -155.710739      -55.562824
 H         -59.658989     -156.362015      -51.792309
 H         -62.080502     -156.590469      -54.569981
 C         -58.583900     -156.479187      -51.554401
 C         -57.847862     -155.182297      -51.254547
 C         -57.890175     -157.762848      -51.958321
 C         -56.540421     -155.527695      -50.446758
 C         -56.551762     -157.887772      -51.265556
 C         -55.696022     -156.558563      -51.207008
 H         -58.666027     -154.566971      -50.686859
 H         -57.622314     -154.634872      -52.215523
 H         -58.578663     -158.562485      -51.712124
 H         -57.727337     -157.702011      -53.006584
 H         -56.914047     -155.947937      -49.496204
 H         -56.003628     -154.603027      -50.451565
 H         -55.923294     -158.750656      -51.740089
 H         -56.755371     -158.140137      -50.168816
 H         -54.719524     -156.730637      -50.615158
 H         -55.474773     -156.160233      -52.170425
