20
 generated by VMD
 C         -29.436117      -74.107201      -20.398088
 N         -30.181431      -74.982819      -20.245716
 H         -26.329226      -74.204544      -18.954081
 H         -28.894476      -73.206146      -20.527386
 C         -26.340479      -74.004257      -20.028574
 C         -25.903172      -75.203667      -20.868813
 C         -25.902964      -72.607155      -20.406349
 C         -26.013433      -74.953354      -22.337042
 C         -26.095974      -72.419640      -21.858885
 C         -25.480848      -73.542656      -22.668369
 H         -26.567654      -75.987129      -20.618608
 H         -24.784101      -75.475822      -20.592989
 H         -26.521738      -71.813911      -19.827354
 H         -24.861027      -72.381683      -20.248743
 H         -27.067612      -75.199936      -22.611456
 H         -25.361399      -75.598335      -22.940145
 H         -25.582960      -71.503128      -22.120983
 H         -27.119574      -72.148483      -22.141216
 H         -25.689751      -73.326050      -23.777128
 H         -24.392843      -73.620697      -22.701237
