20
 generated by VMD
 C         -50.434208     -131.954849      -47.073929
 N         -49.966183     -132.360245      -47.996002
 H         -48.751087     -131.450439      -43.592823
 H         -50.986282     -131.356644      -46.419083
 C         -48.679764     -132.415512      -43.039894
 C         -49.440033     -133.543106      -43.624214
 C         -48.602139     -132.197998      -41.518311
 C         -49.241905     -134.848480      -42.815506
 C         -48.434738     -133.541931      -40.845516
 C         -49.426357     -134.649460      -41.322594
 H         -48.979511     -133.616394      -44.622177
 H         -50.557987     -133.254303      -43.814503
 H         -47.689762     -131.584671      -41.389721
 H         -49.495537     -131.744553      -41.149891
 H         -48.252216     -135.277725      -42.999977
 H         -49.875122     -135.593567      -43.304424
 H         -48.775108     -133.533859      -39.809097
 H         -47.387150     -133.933838      -40.682724
 H         -49.054073     -135.613739      -40.713711
 H         -50.458202     -134.288666      -41.086151
