20
 generated by VMD
 C         -40.072052     -100.891556      -30.971306
 N         -40.391888      -99.932777      -31.522888
 H         -37.470539     -103.210129      -31.139338
 H         -39.673031     -101.666809      -30.408255
 C         -36.822128     -102.325577      -31.273533
 C         -36.260818     -101.590996      -32.563919
 C         -35.990253     -101.964119      -30.055502
 C         -36.180786     -100.024643      -32.439838
 C         -35.810970     -100.344116      -30.056519
 C         -35.176117      -99.812080      -31.365368
 H         -36.851131     -101.926498      -33.463806
 H         -35.268436     -102.023880      -32.698914
 H         -36.453758     -102.199684      -29.125929
 H         -34.951565     -102.475952      -30.113146
 H         -37.257523      -99.784317      -32.303345
 H         -35.853458      -99.558823      -33.380871
 H         -35.175484     -100.062843      -29.160435
 H         -36.782127      -99.890831      -29.865534
 H         -34.880371      -98.747467      -31.441532
 H         -34.191578     -100.338936      -31.454803
