20
 generated by VMD
 C         -66.728500     -190.644928      -66.515518
 N         -67.836845     -190.364029      -66.373535
 H         -70.637947     -190.686859      -66.602821
 H         -65.667297     -190.813156      -66.410759
 C         -71.179550     -190.349609      -65.740585
 C         -72.293427     -191.186569      -65.227959
 C         -70.548073     -189.362671      -64.770370
 C         -73.360619     -190.480377      -64.442352
 C         -71.596092     -188.807205      -63.746803
 C         -72.629158     -189.735687      -63.297085
 H         -71.927780     -192.027267      -64.771622
 H         -72.831429     -191.642670      -66.049843
 H         -69.774979     -189.790329      -64.200043
 H         -70.221458     -188.480164      -65.161720
 H         -74.032829     -191.262085      -63.959675
 H         -73.896057     -189.746597      -65.110176
 H         -72.108856     -188.014450      -64.240265
 H         -71.079613     -188.474808      -62.837921
 H         -72.046867     -190.315704      -62.626373
 H         -73.439018     -189.351791      -62.713894
