20
 generated by VMD
 C         -50.324249     -129.533890      -43.496700
 N         -50.840389     -129.688721      -44.475323
 H         -48.958939     -127.677780      -40.751305
 H         -50.047089     -129.433411      -42.482800
 C         -47.955967     -128.143433      -40.949116
 C         -47.632450     -129.588974      -40.785275
 C         -46.975273     -127.070236      -40.658676
 C         -46.409298     -129.970261      -41.576805
 C         -45.734695     -127.417580      -41.563450
 C         -45.282982     -128.918686      -41.245464
 H         -48.398087     -130.246170      -41.070042
 H         -47.495480     -129.817596      -39.652538
 H         -47.336960     -126.008286      -41.039890
 H         -46.691669     -127.047729      -39.618908
 H         -46.534588     -129.818115      -42.622734
 H         -46.177071     -131.034241      -41.643696
 H         -44.917381     -126.644897      -41.392197
 H         -45.947868     -127.278572      -42.668575
 H         -44.385368     -129.190323      -41.866821
 H         -44.990421     -129.059402      -40.206615
