20
 generated by VMD
 C         -68.639694     -194.968826      -65.512215
 N         -68.752869     -195.040802      -64.333969
 H         -71.136078     -194.468933      -67.375687
 H         -68.471176     -195.095428      -66.531456
 C         -72.023903     -193.844421      -67.228516
 C         -71.765480     -192.470398      -66.542542
 C         -73.406456     -194.359558      -67.551003
 C         -72.982948     -192.068665      -65.709930
 C         -74.600876     -193.577271      -66.932526
 C         -74.323372     -192.122528      -66.410439
 H         -71.476151     -191.766418      -67.363533
 H         -70.949219     -192.622498      -65.880646
 H         -73.693642     -194.236984      -68.683006
 H         -73.437088     -195.407379      -67.236328
 H         -72.823387     -191.084549      -65.303810
 H         -72.937119     -192.771210      -64.859268
 H         -74.803551     -194.149567      -66.037140
 H         -75.473427     -193.644318      -67.585587
 H         -74.241371     -191.485428      -67.264557
 H         -75.184151     -191.742935      -65.829620
