20
 generated by VMD
 C         -20.452633      -52.281265       -9.711475
 N         -21.196299      -51.774754      -10.485590
 H         -18.512669      -49.503048      -10.832779
 H         -20.091885      -52.813522       -8.756660
 C         -17.875538      -49.566967      -11.686205
 C         -17.336555      -50.933418      -12.096762
 C         -17.118567      -48.385979      -12.231403
 C         -16.747826      -51.138046      -13.539463
 C         -16.971146      -48.569588      -13.711044
 C         -16.074276      -49.810513      -13.865567
 H         -18.180571      -51.690842      -12.057525
 H         -16.667276      -51.271606      -11.312365
 H         -17.670486      -47.458675      -11.983784
 H         -16.086639      -48.338245      -11.764110
 H         -17.491497      -51.365257      -14.315770
 H         -16.028774      -52.011494      -13.617865
 H         -16.507219      -47.689796      -14.140746
 H         -17.935791      -48.689621      -14.387733
 H         -15.769036      -49.801834      -14.892860
 H         -15.212990      -49.687241      -13.237020
