20
 generated by VMD
 C         -19.933733      -64.055023      -16.431448
 N         -19.957769      -63.171234      -17.149925
 H         -23.693886      -63.252811      -17.175953
 H         -19.658953      -64.961349      -15.785741
 C         -24.162718      -64.184715      -17.592033
 C         -24.498842      -64.338112      -19.073954
 C         -24.299290      -65.273094      -16.562111
 C         -24.662867      -65.709480      -19.511282
 C         -24.760225      -66.650772      -17.079260
 C         -25.532072      -66.410629      -18.414539
 H         -23.708603      -63.782616      -19.525587
 H         -25.379539      -63.785343      -19.368219
 H         -23.257620      -65.356773      -16.133770
 H         -25.096312      -64.940933      -15.903490
 H         -23.658108      -66.204742      -19.581564
 H         -25.013582      -65.738350      -20.583994
 H         -25.458952      -67.095619      -16.348782
 H         -23.852285      -67.272469      -17.154348
 H         -25.722198      -67.388054      -18.829002
 H         -26.546089      -65.956886      -18.215376
