20
 generated by VMD
 C         -47.402023     -139.076324      -45.678188
 N         -46.801365     -138.634430      -46.600113
 H         -50.816986     -138.920288      -44.615627
 H         -47.959881     -139.682724      -44.935432
 C         -51.747349     -138.911041      -45.157860
 C         -51.782856     -139.166534      -46.604107
 C         -52.978497     -138.403748      -44.369301
 C         -52.964207     -140.175644      -46.915070
 C         -54.114433     -139.465271      -44.661900
 C         -54.280869     -139.780472      -46.127724
 H         -50.877239     -139.586319      -47.030602
 H         -51.932549     -138.133606      -47.045567
 H         -52.765858     -138.312576      -43.351685
 H         -53.270210     -137.454514      -44.685230
 H         -52.520336     -141.115845      -46.432129
 H         -53.131588     -140.371078      -48.034081
 H         -55.184883     -139.177872      -44.284481
 H         -53.827332     -140.313477      -44.106888
 H         -55.134705     -140.452881      -46.265514
 H         -54.734924     -138.909531      -46.583923
