20
 generated by VMD
 C         -23.491642      -55.013096      -14.968431
 N         -22.777122      -54.745811      -15.820303
 H         -20.470566      -54.902760      -15.301346
 H         -24.297924      -55.352787      -14.559025
 C         -19.456974      -55.219387      -14.920748
 C         -19.048206      -54.775776      -13.514081
 C         -18.928196      -56.591301      -15.397304
 C         -18.943937      -55.994419      -12.499732
 C         -19.396399      -57.543697      -14.357262
 C         -18.590864      -57.366589      -13.149195
 H         -19.810530      -54.057571      -13.188320
 H         -18.157337      -54.245728      -13.452223
 H         -19.309782      -56.860912      -16.408550
 H         -17.920160      -56.638199      -15.496639
 H         -19.988750      -56.089787      -12.147618
 H         -18.346390      -55.794415      -11.626359
 H         -19.218180      -58.564472      -14.745043
 H         -20.510769      -57.476124      -14.132794
 H         -18.951021      -58.077705      -12.385765
 H         -17.528572      -57.421776      -13.337024
