20
 generated by VMD
 C         -19.716755      -50.026150       -9.315237
 N         -19.644159      -51.161541       -9.685680
 H         -16.647251      -47.992413      -10.024326
 H         -19.772591      -49.098602       -9.280169
 C         -16.581263      -48.151512      -11.078672
 C         -15.583158      -49.114342      -11.633444
 C         -17.449308      -47.306149      -11.998248
 C         -16.144354      -49.912601      -12.782075
 C         -17.925880      -47.977146      -13.262130
 C         -16.910122      -49.019779      -13.743201
 H         -15.109516      -49.710743      -10.836183
 H         -14.739134      -48.586807      -12.094562
 H         -18.261728      -46.788136      -11.473131
 H         -16.770212      -46.505726      -12.293148
 H         -16.792316      -50.700550      -12.374559
 H         -15.372982      -50.469124      -13.339200
 H         -18.032682      -47.282059      -14.110165
 H         -18.890425      -48.371624      -13.100975
 H         -17.414900      -49.752655      -14.436939
 H         -16.086725      -48.486553      -14.358695
