20
 generated by VMD
 C         -40.228733     -104.886459      -36.831802
 N         -39.519806     -104.004951      -37.102028
 H         -40.415524     -108.179955      -34.906387
 H         -40.718838     -105.708076      -36.390759
 C         -39.693623     -108.716530      -34.358494
 C         -38.591400     -107.811897      -33.690434
 C         -40.223228     -109.878662      -33.510735
 C         -38.903072     -107.556229      -32.186195
 C         -40.502617     -109.539558      -32.060860
 C         -39.328899     -108.748764      -31.388809
 H         -38.547340     -106.800804      -34.197083
 H         -37.615597     -108.279762      -33.744240
 H         -41.189518     -110.142181      -33.963146
 H         -39.701588     -110.772408      -33.510712
 H         -39.538525     -106.726448      -32.103680
 H         -37.950184     -107.286026      -31.725836
 H         -40.784081     -110.452820      -31.513678
 H         -41.544888     -109.066254      -32.072903
 H         -39.531490     -108.588043      -30.284559
 H         -38.554329     -109.386299      -31.319553
