20
 generated by VMD
 C         -31.732815      -76.549896      -24.659859
 N         -31.834763      -76.935661      -25.773628
 H         -29.295282      -77.015633      -22.380449
 H         -31.380033      -76.185516      -23.730883
 C         -28.534773      -77.737633      -22.258932
 C         -27.537060      -78.109329      -23.346024
 C         -28.620342      -78.707054      -21.012703
 C         -26.152128      -78.282074      -22.601019
 C         -27.255909      -79.040009      -20.479729
 C         -26.250317      -79.478065      -21.580475
 H         -27.468334      -77.162735      -23.988733
 H         -27.810453      -78.874550      -24.094149
 H         -29.082327      -78.210693      -20.205526
 H         -29.109446      -79.658646      -21.125393
 H         -25.829573      -77.395279      -22.035183
 H         -25.437580      -78.460152      -23.364676
 H         -27.397245      -79.703552      -19.692797
 H         -26.897249      -78.133423      -20.028648
 H         -25.272932      -79.714767      -21.031000
 H         -26.730087      -80.355316      -22.082031
