20
 generated by VMD
 C         -41.579742     -119.412292      -34.499882
 N         -41.253151     -119.987915      -35.432987
 H         -43.161438     -118.273354      -36.693531
 H         -41.793137     -118.982956      -33.581875
 C         -43.786213     -118.268806      -37.626713
 C         -42.975403     -118.141533      -38.874607
 C         -45.150612     -117.523964      -37.646706
 C         -43.707523     -118.624550      -40.094513
 C         -45.992001     -117.922646      -38.936310
 C         -45.023506     -117.887924      -40.074448
 H         -42.013420     -118.610474      -38.797314
 H         -42.793190     -117.157066      -39.082100
 H         -45.594387     -117.799522      -36.695156
 H         -45.114128     -116.375938      -37.718395
 H         -43.936367     -119.729797      -39.995468
 H         -43.154797     -118.452301      -40.969952
 H         -46.755646     -117.091927      -38.898247
 H         -46.532993     -118.919365      -38.741333
 H         -45.645992     -118.356895      -40.866737
 H         -44.866497     -116.751213      -40.302620
