20
 generated by VMD
 C         -70.415718     -182.350845      -63.694801
 N         -69.478943     -182.800598      -64.269005
 H         -68.471420     -180.356903      -62.349682
 H         -71.249435     -181.926056      -63.207607
 C         -67.781349     -180.543198      -61.566349
 C         -67.501007     -181.930649      -61.000004
 C         -67.304108     -179.292068      -60.733585
 C         -65.989929     -182.078537      -61.068977
 C         -65.744797     -179.515549      -60.614334
 C         -65.332039     -180.996445      -60.160110
 H         -68.022957     -182.618042      -61.694054
 H         -67.845009     -181.968292      -59.966614
 H         -67.454903     -178.360306      -61.303482
 H         -67.719749     -179.193726      -59.685200
 H         -65.662041     -182.057022      -62.202446
 H         -65.714211     -183.197128      -60.776985
 H         -65.319885     -178.842041      -59.863052
 H         -65.121033     -179.207352      -61.467003
 H         -64.265854     -181.072723      -60.181961
 H         -65.568016     -181.070267      -59.048218
