20
 generated by VMD
 C         -38.668602     -113.501305      -35.967548
 N         -37.645256     -114.026207      -35.936588
 H         -41.701874     -115.485687      -35.702221
 H         -39.746624     -113.263496      -35.886154
 C         -42.231136     -114.557144      -35.990303
 C         -42.361629     -114.350288      -37.457619
 C         -43.453289     -114.274879      -35.119724
 C         -43.466797     -115.347839      -37.944450
 C         -44.693535     -114.908737      -35.717281
 C         -44.783569     -114.975830      -37.224915
 H         -41.572094     -114.465073      -38.149952
 H         -42.897377     -113.431831      -37.654919
 H         -43.174896     -114.518585      -34.133823
 H         -43.486649     -113.203033      -35.102333
 H         -43.149994     -116.366348      -37.694084
 H         -43.712479     -115.292831      -39.050606
 H         -45.637363     -114.385529      -35.409977
 H         -44.704388     -115.950859      -35.268845
 H         -45.583961     -115.668884      -37.456539
 H         -44.928608     -113.920723      -37.762459
