20
 generated by VMD
 C         -56.160152     -150.207062      -47.028389
 N         -57.113461     -150.313065      -46.319695
 H         -53.339470     -147.922714      -47.596684
 H         -55.373718     -149.951111      -47.752502
 C         -53.783752     -147.561432      -48.477974
 C         -53.115757     -148.176270      -49.705471
 C         -54.514381     -146.220505      -48.539661
 C         -53.837856     -147.900726      -51.027225
 C         -55.476051     -146.129608      -49.781906
 C         -54.715118     -146.593170      -51.117680
 H         -52.831627     -149.323196      -49.548389
 H         -52.126823     -147.787643      -49.854259
 H         -54.936779     -145.934814      -47.562016
 H         -53.802959     -145.439499      -48.662354
 H         -54.511387     -148.799850      -51.057236
 H         -53.180584     -148.068298      -51.935646
 H         -55.814384     -145.116013      -49.965523
 H         -56.409187     -146.719025      -49.497639
 H         -55.430489     -146.805099      -51.953053
 H         -54.209297     -145.720642      -51.518188
