20
 generated by VMD
 C         -43.227348     -121.137947      -35.536186
 N         -43.034031     -120.584007      -34.558414
 H         -44.337521     -121.840370      -38.753933
 H         -43.604481     -121.515671      -36.430923
 C         -44.440357     -120.763710      -39.084114
 C         -43.190460     -120.082161      -39.682709
 C         -45.455185     -119.950691      -38.419281
 C         -43.668991     -118.992401      -40.588543
 C         -45.850204     -118.817787      -39.326958
 C         -44.699329     -118.083305      -39.977947
 H         -42.723305     -120.759872      -40.316006
 H         -42.678375     -119.770370      -38.796196
 H         -46.316071     -120.542114      -38.096027
 H         -45.050896     -119.518295      -37.464363
 H         -44.121105     -119.461998      -41.516384
 H         -42.961010     -118.287140      -41.025906
 H         -46.572800     -118.065475      -38.977657
 H         -46.332848     -119.352051      -40.297791
 H         -45.183781     -117.371658      -40.704857
 H         -44.140465     -117.554352      -39.139626
