20
 generated by VMD
 C         -30.242897      -79.476868      -25.898247
 N         -30.966814      -78.584732      -26.150251
 H         -28.457636      -82.647491      -25.553616
 H         -29.499887      -80.370598      -25.967890
 C         -28.957664      -82.515053      -24.630110
 C         -28.149290      -81.845901      -23.648346
 C         -29.955261      -83.416786      -24.282701
 C         -29.061630      -81.251038      -22.518412
 C         -30.807268      -82.995079      -23.048958
 C         -29.996117      -82.256454      -21.959568
 H         -27.547468      -81.016708      -24.064518
 H         -27.383291      -82.417961      -23.235666
 H         -30.696064      -83.611427      -25.141436
 H         -29.428297      -84.406219      -24.160858
 H         -29.678417      -80.415398      -22.709061
 H         -28.313341      -80.940338      -21.771955
 H         -31.443199      -83.927567      -22.707367
 H         -31.526924      -82.239090      -23.388792
 H         -30.704266      -81.755402      -21.175648
 H         -29.432606      -82.964584      -21.243645
