20
 generated by VMD
 C         -20.017952      -56.128529      -16.739189
 N         -21.158905      -56.415794      -16.503042
 H         -21.931572      -59.187737      -17.208744
 H         -19.139938      -56.001568      -17.238087
 C         -22.196457      -59.958996      -16.557238
 C         -22.670889      -59.514339      -15.194980
 C         -22.061459      -61.523678      -16.570875
 C         -21.577175      -59.674191      -14.202185
 C         -20.887194      -61.870903      -15.583302
 C         -20.977871      -61.125786      -14.228687
 H         -23.457041      -60.221016      -14.851490
 H         -23.141407      -58.542919      -15.202435
 H         -22.952290      -62.098751      -16.303326
 H         -21.775412      -61.838776      -17.576191
 H         -21.925648      -59.353119      -13.197837
 H         -20.791212      -59.083530      -14.592089
 H         -19.942753      -61.530006      -16.103668
 H         -20.830957      -62.950119      -15.238741
 H         -21.636147      -61.786240      -13.605512
 H         -20.080641      -61.129753      -13.615333
