20
 generated by VMD
 C          -1.215614      -12.728127        1.205782
 N          -0.662470      -12.791727        0.265463
 H          -4.231488      -12.988812        1.214340
 H          -5.812589      -13.307892        0.583479
 C          -4.997219      -13.762305        1.208077
 C          -5.529405      -14.043949        2.627096
 C          -4.441235      -14.977818        0.492954
 C          -6.570998      -15.190024        2.570729
 C          -5.471789      -16.011604        0.445416
 C          -5.974502      -16.457296        1.802557
 H          -6.081763      -13.130046        3.005329
 H          -4.696469      -14.454516        3.233381
 H          -4.126560      -14.818880       -0.574752
 H          -3.509773      -15.361788        1.046827
 H          -7.460651      -14.907838        2.034681
 H          -6.864963      -15.521842        3.581010
 H          -5.104313      -16.894459       -0.106126
 H          -6.342390      -15.653076       -0.090976
 H          -6.851421      -17.062546        1.658010
 H          -5.275313      -16.962734        2.440335
