20
 generated by VMD
 C         -79.492943     -205.196259      -70.916824
 N         -80.640419     -205.471191      -70.959404
 H         -76.962082     -203.093719      -69.145584
 H         -78.447632     -204.840240      -71.132210
 C         -75.984825     -203.033569      -69.503471
 C         -75.469185     -201.964691      -70.461128
 C         -75.157867     -204.176651      -69.051758
 C         -73.981880     -201.798737      -70.322495
 C         -73.607994     -204.031570      -69.197403
 C         -73.083778     -202.970474      -70.170013
 H         -76.069130     -201.078888      -70.284218
 H         -75.680984     -202.331528      -71.517899
 H         -75.467163     -204.334641      -68.039009
 H         -75.447159     -205.061127      -69.481422
 H         -73.727386     -201.180420      -69.434647
 H         -73.545280     -201.147095      -71.175056
 H         -73.168549     -205.003525      -69.498604
 H         -73.190742     -203.807968      -68.155533
 H         -72.056320     -202.659531      -69.898293
 H         -73.049889     -203.433823      -71.116646
