20
 generated by VMD
 C         -59.407791     -158.240494      -56.619270
 N         -58.649529     -158.576874      -57.420307
 H         -60.461628     -158.132462      -53.523720
 H         -60.107002     -157.869324      -55.868439
 C         -60.000282     -158.997330      -53.016396
 C         -58.522285     -158.833023      -52.501232
 C         -60.577911     -160.361053      -53.205143
 C         -58.230991     -159.944168      -51.553696
 C         -60.317795     -161.293228      -52.051823
 C         -58.739891     -161.360703      -51.955971
 H         -58.451809     -157.860352      -52.045002
 H         -57.878906     -158.886261      -53.419590
 H         -61.644558     -160.365799      -53.359528
 H         -60.180607     -160.822754      -54.123249
 H         -58.803555     -159.586716      -50.635548
 H         -57.193089     -160.059937      -51.095814
 H         -60.585052     -162.321579      -52.199459
 H         -60.868553     -160.936813      -51.192982
 H         -58.614712     -162.196686      -51.145260
 H         -58.229485     -161.873199      -52.867584
