20
 generated by VMD
 C         -58.472141     -151.362213      -49.529266
 N         -58.893646     -152.159317      -48.724163
 H         -55.419159     -149.841415      -47.523277
 H         -58.177418     -150.688766      -50.319496
 C         -55.164288     -149.537949      -48.588070
 C         -54.288651     -150.505768      -49.421402
 C         -54.939667     -148.075531      -48.917271
 C         -54.171062     -150.099518      -50.940613
 C         -54.846035     -147.763519      -50.481155
 C         -53.791737     -148.656372      -51.219307
 H         -54.813828     -151.471771      -49.382973
 H         -53.248508     -150.426620      -49.000053
 H         -55.558796     -147.283859      -48.459053
 H         -53.900684     -147.935501      -48.528252
 H         -55.100025     -150.480728      -51.344807
 H         -53.278946     -150.664520      -51.300449
 H         -54.623966     -146.780518      -50.665409
 H         -55.888706     -147.846085      -50.927494
 H         -53.671535     -148.443970      -52.296471
 H         -52.852818     -148.463623      -50.744514
