20
 generated by VMD
 C         -60.236599     -170.724136      -55.228935
 N         -59.213203     -171.337402      -55.219864
 H         -63.504028     -170.652771      -57.111523
 H         -61.188557     -170.212509      -55.131134
 C         -63.400848     -169.591125      -56.903393
 C         -62.355602     -168.770172      -57.552307
 C         -64.644127     -168.920380      -56.498158
 C         -62.954613     -167.905823      -58.724255
 C         -65.281113     -168.053772      -57.605492
 C         -64.289185     -167.238373      -58.351711
 H         -61.561153     -169.336212      -57.892555
 H         -61.831673     -168.085922      -56.803085
 H         -65.473984     -169.661224      -56.048271
 H         -64.468697     -168.168991      -55.679962
 H         -63.056870     -168.568787      -59.557053
 H         -62.180004     -167.211945      -58.907654
 H         -66.128571     -167.399231      -57.245770
 H         -65.829178     -168.796448      -58.311954
 H         -64.701218     -166.878311      -59.309582
 H         -64.238739     -166.357117      -57.756367
