20
 generated by VMD
 C         -59.985424     -152.836746      -51.049007
 N         -60.789680     -152.466217      -51.761009
 H         -56.845440     -153.317062      -49.324421
 H         -59.167961     -153.230270      -50.513203
 C         -56.115208     -152.605347      -49.713692
 C         -54.703011     -152.857346      -49.440208
 C         -56.452209     -151.259506      -50.102413
 C         -53.850330     -152.516281      -50.692242
 C         -55.508549     -150.697540      -51.207302
 C         -54.068874     -151.039078      -50.887424
 H         -54.726643     -153.979919      -49.191090
 H         -54.310455     -152.402115      -48.499992
 H         -57.390495     -151.242981      -50.624794
 H         -56.517056     -150.562347      -49.269516
 H         -53.999477     -153.045242      -51.620583
 H         -52.764214     -152.760605      -50.490421
 H         -55.659489     -149.510681      -51.211697
 H         -55.864460     -151.189423      -52.067989
 H         -53.389084     -150.524078      -51.668076
 H         -53.764973     -150.488556      -50.031116
