20
 generated by VMD
 C         -12.521632      -30.225683       -7.908921
 N         -13.539998      -29.947048       -7.539411
 H         -11.447608      -30.492094       -5.262297
 H         -10.409918      -30.434786       -3.731377
 C         -10.838997      -31.084606       -4.598802
 C          -9.629712      -31.565399       -5.430707
 C         -11.712870      -32.215359       -4.121593
 C          -8.970733      -32.704002       -4.710532
 C         -11.052593      -33.436970       -3.515172
 C          -9.890074      -33.913712       -4.465803
 H          -8.849908      -30.761013       -5.633152
 H         -10.033113      -31.858885       -6.351116
 H         -12.395809      -31.834139       -3.344388
 H         -12.327757      -32.519691       -5.006574
 H          -8.487340      -32.455971       -3.739527
 H          -8.218692      -33.079144       -5.451800
 H         -11.743931      -34.235672       -3.420176
 H         -10.678198      -33.149128       -2.498054
 H          -9.318652      -34.747684       -3.980721
 H         -10.376987      -34.235592       -5.463154
