20
 generated by VMD
 C         -12.805600      -30.107920       -8.363203
 N         -13.800103      -30.588654       -8.542856
 H         -10.953650      -30.832661       -5.071493
 H         -10.801691      -31.681299       -3.457591
 C         -10.822707      -31.778704       -4.541480
 C          -9.465212      -32.354595       -4.963070
 C         -11.904137      -32.732792       -4.849994
 C          -9.193364      -33.686478       -4.215372
 C         -11.740530      -34.075531       -4.160508
 C         -10.336261      -34.678177       -4.608886
 H          -8.664738      -31.659163       -4.723317
 H          -9.294928      -32.501598       -6.035466
 H         -12.872500      -32.283978       -4.563525
 H         -12.015273      -32.957397       -5.913542
 H          -9.145004      -33.483246       -3.095076
 H          -8.184654      -34.161388       -4.397596
 H         -12.585466      -34.731102       -4.409470
 H         -11.895617      -33.900730       -3.044914
 H         -10.194228      -35.619034       -4.116289
 H         -10.334881      -34.845558       -5.699736
