20
 generated by VMD
 C         -40.189468     -104.944412      -36.898994
 N         -39.565697     -103.974831      -37.093838
 H         -40.162899     -108.371742      -35.126194
 H         -40.877335     -105.753433      -36.576057
 C         -39.630219     -108.739510      -34.280342
 C         -38.640038     -107.931480      -33.669537
 C         -40.280605     -109.833611      -33.573212
 C         -38.875397     -107.550995      -32.142502
 C         -40.536224     -109.539024      -32.083229
 C         -39.393398     -108.826736      -31.418825
 H         -38.317875     -107.110847      -34.314251
 H         -37.802135     -108.566772      -33.693336
 H         -41.182739     -110.181412      -34.106289
 H         -39.537163     -110.566124      -33.699986
 H         -39.619598     -106.800308      -31.995085
 H         -37.939213     -107.162621      -31.688555
 H         -40.502190     -110.516174      -31.569414
 H         -41.420521     -108.880356      -31.892082
 H         -39.645519     -108.503601      -30.337023
 H         -38.614166     -109.448814      -31.424875
