20
 generated by VMD
 C         -72.945671     -199.442108      -65.602753
 N         -73.915382     -200.081070      -65.538544
 H         -71.243568     -196.600967      -67.217209
 H         -71.984375     -198.918884      -65.815552
 C         -72.244164     -196.584869      -67.636681
 C         -73.163300     -195.511810      -67.036331
 C         -72.453896     -196.950226      -69.101952
 C         -74.243622     -195.184708      -68.036125
 C         -73.827461     -197.393448      -69.301758
 C         -74.828651     -196.370178      -68.769684
 H         -72.580498     -194.733215      -66.643608
 H         -73.806763     -195.916946      -66.280815
 H         -72.266174     -196.017532      -69.707306
 H         -71.753746     -197.823502      -69.402481
 H         -73.795418     -194.481140      -68.778152
 H         -75.023628     -194.591187      -67.582733
 H         -73.994278     -198.346985      -68.840111
 H         -73.882141     -197.628067      -70.407234
 H         -75.742508     -196.067749      -69.583435
 H         -75.420006     -196.949966      -68.120094
