20
 generated by VMD
 C          -1.212664      -13.027510        1.056696
 N          -0.549548      -12.924192        0.172887
 H          -4.232726      -13.063878        1.608949
 H          -5.599802      -13.189887        0.597163
 C          -5.041169      -13.753692        1.367450
 C          -5.839652      -14.186500        2.572439
 C          -4.351385      -14.983758        0.621644
 C          -6.742283      -15.378169        2.359986
 C          -5.395162      -16.080986        0.426697
 C          -6.076827      -16.547869        1.700717
 H          -6.417292      -13.308884        2.837201
 H          -5.155339      -14.245404        3.461917
 H          -3.918987      -14.654529       -0.343138
 H          -3.524891      -15.229409        1.250871
 H          -7.527965      -15.038574        1.629466
 H          -7.323151      -15.639403        3.251942
 H          -4.854520      -16.923002       -0.014765
 H          -6.158262      -15.767962       -0.310174
 H          -6.827299      -17.379728        1.506139
 H          -5.318454      -17.024012        2.389545
