20
 generated by VMD
 C         -13.511683      -30.582758       -8.368639
 N         -13.504350      -30.091087       -9.348536
 H         -11.049091      -31.289392       -5.380026
 H         -11.113233      -31.892698       -3.807126
 C         -10.924304      -32.222885       -4.798891
 C          -9.554588      -32.865528       -4.861255
 C         -12.000148      -33.298840       -5.220604
 C          -9.413823      -34.092678       -3.998321
 C         -11.852710      -34.589836       -4.337730
 C         -10.477336      -35.132225       -4.344092
 H          -8.749482      -32.078846       -4.728477
 H          -9.394008      -33.095104       -5.895074
 H         -13.078466      -33.024067       -5.332342
 H         -11.767613      -33.699924       -6.252973
 H          -9.506188      -33.833427       -2.907620
 H          -8.332327      -34.474468       -4.087078
 H         -12.615696      -35.332199       -4.662114
 H         -12.157500      -34.378429       -3.284301
 H         -10.348815      -36.041317       -3.723219
 H         -10.292253      -35.499004       -5.383856
