20
 generated by VMD
 C         -73.992897     -201.309250      -65.679611
 N         -72.974571     -200.939362      -66.071739
 H         -75.783981     -198.277969      -67.385941
 H         -74.964912     -201.505508      -65.206871
 C         -75.174995     -197.872375      -68.157196
 C         -74.894218     -196.421951      -67.920006
 C         -74.465591     -198.642242      -69.114929
 C         -73.445770     -195.921677      -68.422066
 C         -73.419098     -197.930634      -69.957748
 C         -72.577522     -197.017853      -68.983467
 H         -74.883690     -196.220703      -66.883064
 H         -75.765106     -195.948837      -68.431396
 H         -73.890106     -199.524231      -68.729950
 H         -75.315941     -198.946777      -69.843094
 H         -73.087273     -195.468033      -67.537758
 H         -73.641159     -195.152328      -69.197418
 H         -73.871910     -197.464981      -70.810623
 H         -72.741112     -198.632767      -70.500900
 H         -72.187561     -197.534851      -68.142349
 H         -71.729805     -196.625839      -69.592422
