20
 generated by VMD
 C         -20.443741      -57.296967      -16.661711
 N         -19.774395      -56.349903      -16.543232
 H         -22.598469      -60.128292      -17.918787
 H         -20.832998      -58.423492      -16.600187
 C         -22.603460      -60.662575      -17.012415
 C         -23.375032      -60.290329      -15.764752
 C         -21.319893      -61.356468      -16.792257
 C         -22.612801      -60.406483      -14.458653
 C         -20.955751      -62.036999      -15.480487
 C         -21.939205      -61.801842      -14.355601
 H         -24.179790      -61.093021      -15.600139
 H         -23.903893      -59.355000      -15.808162
 H         -21.145248      -61.954319      -17.708647
 H         -20.621334      -60.553009      -16.951994
 H         -23.287840      -60.245388      -13.601165
 H         -21.821138      -59.698845      -14.549231
 H         -19.860298      -61.951931      -15.268063
 H         -21.069204      -63.120888      -15.780361
 H         -22.624474      -62.667435      -14.430355
 H         -21.506527      -61.876053      -13.365287
