20
 generated by VMD
 C         -23.463917      -68.693077      -16.609699
 N         -23.205849      -69.461449      -15.774173
 H         -23.904865      -66.320168      -18.666496
 H         -23.545874      -67.818214      -17.340944
 C         -24.495186      -67.030792      -19.272308
 C         -23.865818      -67.710869      -20.559645
 C         -25.954319      -67.053711      -19.148912
 C         -24.485249      -69.085777      -20.759167
 C         -26.423523      -68.516006      -19.169479
 C         -26.034731      -69.105637      -20.443377
 H         -22.712950      -67.899750      -20.358452
 H         -23.999651      -67.103127      -21.506647
 H         -26.268356      -66.492172      -18.242802
 H         -26.455379      -66.458664      -19.840874
 H         -24.023954      -69.827927      -20.026588
 H         -24.261116      -69.521324      -21.760357
 H         -27.528805      -68.555801      -19.124594
 H         -26.165762      -69.063110      -18.245220
 H         -26.447493      -70.108620      -20.372786
 H         -26.511257      -68.556290      -21.300421
