20
 generated by VMD
 C         -61.378700     -156.168289      -55.045128
 N         -60.398788     -155.839783      -55.672729
 H         -59.604603     -156.101089      -51.534679
 H         -62.216671     -156.299057      -54.338131
 C         -58.545292     -156.238190      -51.298523
 C         -57.664562     -155.117126      -50.843739
 C         -57.842701     -157.344467      -52.018204
 C         -56.338383     -155.382263      -50.341911
 C         -56.443119     -157.663818      -51.361687
 C         -55.613075     -156.438461      -51.203358
 H         -58.265530     -154.647141      -50.072601
 H         -57.586597     -154.348373      -51.683563
 H         -58.460518     -158.148453      -52.131161
 H         -57.587906     -156.909164      -52.988667
 H         -56.586098     -155.605881      -49.289371
 H         -55.788612     -154.530060      -50.607227
 H         -55.846561     -158.298706      -51.972675
 H         -56.739239     -158.185028      -50.390717
 H         -54.594864     -156.625626      -50.814629
 H         -55.439396     -155.970703      -52.176491
