20
 generated by VMD
 C         -30.407686      -74.551132      -21.014421
 N         -30.971563      -75.485199      -20.610737
 H         -27.407257      -74.818367      -19.463909
 H         -29.895065      -73.885475      -21.753418
 C         -26.796112      -74.616776      -20.320408
 C         -26.493265      -75.792961      -21.248121
 C         -26.008953      -73.375160      -20.377329
 C         -26.022570      -75.402283      -22.596004
 C         -25.546827      -73.059227      -21.863621
 C         -24.910524      -74.252235      -22.569057
 H         -27.483103      -76.260399      -21.359659
 H         -25.743837      -76.343094      -20.792322
 H         -26.598549      -72.589806      -19.897814
 H         -25.072086      -73.503601      -19.688499
 H         -26.878218      -75.145149      -23.233761
 H         -25.539755      -76.220665      -23.113169
 H         -24.883465      -72.150810      -21.949986
 H         -26.420977      -72.641426      -22.410772
 H         -24.789736      -73.927841      -23.595686
 H         -23.886335      -74.556602      -22.229460
