20
 generated by VMD
 C         -40.527122      -99.916847      -29.401745
 N         -39.942520     -100.161316      -28.427633
 H         -37.416035      -98.948433      -30.737804
 H         -41.156555      -99.524902      -30.278648
 C         -36.380329      -98.872559      -30.826908
 C         -35.804848      -99.291115      -32.130123
 C         -35.390854      -99.001129      -29.618933
 C         -34.783962      -98.196953      -32.482513
 C         -34.349163      -98.012161      -29.974159
 C         -33.717949      -98.117256      -31.417866
 H         -36.653828      -99.328522      -32.841560
 H         -35.250820     -100.189812      -32.140984
 H         -35.826427      -98.830048      -28.600582
 H         -34.979095      -99.973167      -29.665966
 H         -35.250183      -97.210060      -32.457733
 H         -34.311676      -98.453796      -33.529957
 H         -33.640087      -97.960876      -29.102352
 H         -34.763744      -96.992195      -29.951027
 H         -33.068047      -97.221893      -31.518570
 H         -33.097637      -99.020561      -31.561605
