20
 generated by VMD
 C         -58.839569     -158.930389      -57.376629
 N         -58.993031     -158.168594      -58.171013
 H         -59.575195     -159.499344      -54.398762
 H         -58.692596     -159.698822      -56.661602
 C         -59.534950     -160.266220      -53.682964
 C         -58.493488     -160.253769      -52.644009
 C         -60.545700     -161.361404      -53.703255
 C         -59.010345     -160.892761      -51.366211
 C         -61.157642     -161.677246      -52.337711
 C         -60.054420     -161.901672      -51.356327
 H         -58.248783     -159.190781      -52.449570
 H         -57.527428     -160.869125      -52.958595
 H         -61.235691     -160.937836      -54.510899
 H         -60.212570     -162.249893      -54.149433
 H         -59.298618     -160.120117      -50.607689
 H         -58.149868     -161.220490      -50.731293
 H         -61.813869     -162.504868      -52.413795
 H         -61.689770     -160.842224      -51.929607
 H         -60.485962     -162.143539      -50.379284
 H         -59.717613     -162.992172      -51.512779
