20
 generated by VMD
 C         -50.801105     -129.848648      -46.256622
 N         -50.861370     -130.238495      -45.146843
 H         -47.994934     -131.933105      -44.418694
 H         -50.681194     -129.253677      -47.159710
 C         -47.749176     -131.939697      -43.349808
 C         -48.251671     -133.149155      -42.586018
 C         -48.023026     -130.549911      -42.624184
 C         -47.707386     -133.060532      -41.079327
 C         -47.428982     -130.572220      -41.265614
 C         -48.019711     -131.664001      -40.398624
 H         -47.895996     -134.111938      -43.082058
 H         -49.335850     -133.162506      -42.611919
 H         -47.547306     -129.748672      -43.173695
 H         -49.080730     -130.382050      -42.551937
 H         -46.574688     -133.257141      -41.054905
 H         -48.125767     -133.909195      -40.472553
 H         -47.507687     -129.709549      -40.606777
 H         -46.361115     -130.731293      -41.272362
 H         -47.365726     -131.602280      -39.498657
 H         -49.075809     -131.674316      -40.187332
