20
 generated by VMD
 C          -9.237142      -24.095867        1.895803
 N          -9.166675      -25.143717        2.262911
 H          -7.722783      -23.235094       -0.837580
 H          -8.838561      -22.677128       -1.905277
 C          -7.770111      -23.023575       -1.901531
 C          -7.570721      -24.176237       -2.778850
 C          -6.880550      -21.860697       -2.189714
 C          -7.674807      -23.815258       -4.231541
 C          -6.973773      -21.454796       -3.713433
 C          -6.745159      -22.715275       -4.582671
 H          -8.205542      -25.030785       -2.686150
 H          -6.503180      -24.554417       -2.611515
 H          -7.105635      -21.042261       -1.491076
 H          -5.856880      -22.252842       -2.059522
 H          -8.723141      -23.544136       -4.360993
 H          -7.385400      -24.661320       -4.813598
 H          -6.232998      -20.673498       -3.931475
 H          -7.960117      -21.141642       -4.004989
 H          -6.912675      -22.401463       -5.629325
 H          -5.754440      -23.098396       -4.429669
