20
 generated by VMD
 C         -19.922262      -57.445995      -16.847385
 N         -19.189878      -57.846481      -17.685745
 H         -22.635008      -59.232006      -16.753822
 H         -20.544867      -56.959473      -16.021931
 C         -22.613609      -60.364952      -16.529615
 C         -23.905367      -61.170887      -16.408564
 C         -21.352692      -60.925087      -15.886658
 C         -23.839153      -62.605621      -15.774325
 C         -21.332808      -62.217400      -15.167728
 C         -22.689373      -62.787010      -14.764582
 H         -24.217821      -61.341503      -17.419466
 H         -24.580450      -60.634922      -15.742923
 H         -20.498611      -60.834694      -16.586126
 H         -21.216434      -60.124149      -15.159975
 H         -23.656406      -63.288692      -16.594948
 H         -24.820873      -62.843285      -15.321733
 H         -20.677803      -62.014687      -14.315361
 H         -20.798317      -63.016624      -15.615282
 H         -22.640799      -63.854736      -14.447099
 H         -22.978758      -62.167824      -13.894432
