20
 generated by VMD
 C         -12.103960      -25.388405       -0.468458
 N         -12.913055      -25.922035        0.073454
 H          -8.940539      -26.964443       -2.211823
 H          -9.358315      -25.829912       -3.578962
 C          -8.505228      -26.257030       -2.971624
 C          -7.495827      -26.965044       -3.837144
 C          -7.861524      -24.959921       -2.426167
 C          -6.898686      -26.154118       -4.950701
 C          -7.299327      -24.152933       -3.553304
 C          -6.278296      -24.958771       -4.340137
 H          -7.869814      -27.819712       -4.364465
 H          -6.592863      -27.308123       -3.160954
 H          -8.586200      -24.391731       -1.827975
 H          -7.017197      -25.244514       -1.780818
 H          -7.727018      -25.949354       -5.667682
 H          -6.119181      -26.797132       -5.421415
 H          -6.861005      -23.182932       -3.271853
 H          -8.097345      -23.960342       -4.267799
 H          -5.850971      -24.346458       -5.132408
 H          -5.511551      -25.269945       -3.616290
