20
 generated by VMD
 C         -63.383350     -174.843781      -55.409111
 N         -62.594444     -174.376328      -56.147045
 H         -65.188675     -173.231705      -57.810444
 H         -64.217911     -175.137650      -54.759872
 C         -64.798042     -172.402649      -58.311634
 C         -64.883438     -171.193039      -57.593533
 C         -64.543205     -172.486435      -59.740433
 C         -64.050217     -170.038589      -58.169640
 C         -63.479237     -171.486145      -60.175472
 C         -63.992470     -170.043915      -59.730652
 H         -64.608047     -171.296860      -56.423706
 H         -65.876450     -170.879715      -57.617966
 H         -64.154503     -173.532639      -60.106407
 H         -65.550560     -172.260239      -60.351219
 H         -63.125229     -169.979294      -57.701641
 H         -64.553436     -169.145218      -57.883255
 H         -63.500435     -171.544708      -61.246883
 H         -62.481060     -171.651321      -59.750195
 H         -63.471207     -169.183228      -60.199821
 H         -65.005753     -169.991013      -60.075436
