20
 generated by VMD
 C          -1.614634       -7.951183        0.845109
 N          -2.334822       -7.606256        0.036929
 H          -3.488863       -9.262462        2.186737
 H          -2.239685      -10.432972        2.103845
 C          -3.161637      -10.242212        2.666331
 C          -4.172007      -11.341608        2.518850
 C          -2.800341      -10.132683        4.123520
 C          -3.577512      -12.661676        2.967407
 C          -2.254048      -11.356693        4.772272
 C          -3.123538      -12.511602        4.480744
 H          -4.549574      -11.486220        1.471150
 H          -5.150223      -11.061359        3.070948
 H          -2.057776       -9.350305        4.138796
 H          -3.673965       -9.977836        4.708648
 H          -2.724672      -13.103813        2.439118
 H          -4.339440      -13.435218        3.020298
 H          -2.282758      -11.252826        5.838927
 H          -1.258704      -11.529480        4.381065
 H          -2.682915      -13.456868        4.803689
 H          -4.031051      -12.470119        5.109331
