20
 generated by VMD
 C         -10.722137      -36.974354       -8.608223
 N         -10.826769      -36.429050       -7.648735
 H         -13.190156      -37.404346       -7.442763
 H         -14.371017      -38.114326       -6.307006
 C         -13.961671      -38.221573       -7.275128
 C         -13.080659      -39.475910       -7.407512
 C         -15.094181      -38.282818       -8.294872
 C         -13.896580      -40.754028       -7.212453
 C         -15.913897      -39.537167       -8.291121
 C         -15.002848      -40.805885       -8.212507
 H         -12.201511      -39.410549       -6.688200
 H         -12.556342      -39.595959       -8.413342
 H         -15.664283      -37.382141       -8.116413
 H         -14.686306      -38.084949       -9.270551
 H         -14.261859      -40.842716       -6.167222
 H         -13.283953      -41.633801       -7.234713
 H         -16.585472      -39.574543       -9.187892
 H         -16.547913      -39.528362       -7.419929
 H         -15.615399      -41.691608       -8.026671
 H         -14.550766      -40.925507       -9.205237
