20
 generated by VMD
 C         -49.552711     -127.134315      -40.128273
 N         -49.549496     -126.933380      -38.997124
 H         -46.481480     -126.997971      -42.359524
 H         -49.253391     -127.330246      -41.158924
 C         -46.403568     -126.268463      -41.628677
 C         -45.241154     -126.636490      -40.585121
 C         -46.733017     -124.807480      -41.566559
 C         -44.085655     -125.626640      -40.574448
 C         -45.536209     -123.886818      -41.421146
 C         -44.665714     -124.263130      -40.290012
 H         -44.736736     -127.663933      -40.783520
 H         -45.820892     -126.757416      -39.615978
 H         -47.394035     -124.423889      -42.366901
 H         -47.378807     -124.757263      -40.689590
 H         -43.478168     -125.530586      -41.461380
 H         -43.424843     -125.819122      -39.741074
 H         -45.862953     -122.820480      -41.249512
 H         -44.924858     -123.695251      -42.289551
 H         -43.806053     -123.527138      -40.231613
 H         -45.124023     -124.380997      -39.326206
