20
 generated by VMD
 C         -80.102776     -205.504288      -72.211258
 N         -80.004364     -206.690948      -72.206619
 H         -77.288727     -204.196884      -70.899139
 H         -80.405022     -204.503922      -72.106163
 C         -76.478561     -204.826813      -71.244423
 C         -75.157257     -204.011475      -71.308861
 C         -76.302475     -206.273422      -70.629738
 C         -74.654816     -203.914597      -69.885506
 C         -75.574753     -206.052643      -69.285934
 C         -74.261734     -205.235138      -69.232613
 H         -75.318596     -203.038940      -71.870224
 H         -74.454262     -204.568924      -71.883347
 H         -77.285324     -206.799683      -70.458557
 H         -75.703758     -206.801636      -71.315376
 H         -75.490776     -203.377792      -69.344124
 H         -73.920120     -203.164261      -70.031113
 H         -75.429718     -207.079010      -68.904411
 H         -76.202034     -205.635056      -68.571404
 H         -73.740814     -205.051636      -68.258789
 H         -73.573288     -205.844955      -69.813454
