20
 generated by VMD
 C         -19.600233      -60.500942      -17.189747
 N         -19.272114      -60.740135      -16.092836
 H         -22.725582      -61.400131      -17.838392
 H         -19.788820      -60.115421      -18.264748
 C         -23.108677      -62.381840      -17.515829
 C         -23.974741      -63.169445      -18.419794
 C         -23.261854      -62.534298      -16.006920
 C         -24.425068      -64.573196      -17.942160
 C         -23.203791      -64.095291      -15.820729
 C         -24.427618      -64.806419      -16.434387
 H         -23.467808      -63.219639      -19.440752
 H         -24.919113      -62.597603      -18.615517
 H         -22.392933      -61.943439      -15.563173
 H         -24.181759      -62.158516      -15.533382
 H         -23.924208      -65.518105      -18.315559
 H         -25.433014      -64.823547      -18.255964
 H         -23.379639      -64.247932      -14.735884
 H         -22.270878      -64.466362      -16.290537
 H         -24.594296      -65.883911      -16.202967
 H         -25.346184      -64.303558      -16.058098
