20
 generated by VMD
 C         -22.065117      -67.264336      -16.485727
 N         -21.033800      -66.922005      -16.075853
 H         -24.192165      -64.999306      -18.079002
 H         -22.977766      -67.446739      -17.125395
 C         -24.488382      -65.977440      -18.544147
 C         -23.882662      -66.453682      -19.795010
 C         -25.969271      -66.194633      -18.217169
 C         -24.381939      -67.839478      -20.259928
 C         -26.189713      -67.670959      -18.455717
 C         -25.867517      -67.883621      -19.944717
 H         -22.780766      -66.301598      -19.630972
 H         -24.310947      -65.727341      -20.503471
 H         -26.379883      -65.922508      -17.273130
 H         -26.536196      -65.593513      -18.916182
 H         -23.793238      -68.626076      -19.776636
 H         -24.273716      -67.934235      -21.335497
 H         -27.261999      -67.936043      -18.363945
 H         -25.645807      -68.336884      -17.815727
 H         -26.105131      -68.932709      -20.089712
 H         -26.378662      -67.342201      -20.745018
