20
 generated by VMD
 C         -18.302769      -49.109215       -7.770363
 N         -19.164526      -49.817921       -7.912848
 H         -16.149958      -47.356777      -10.057150
 H         -16.780088      -48.855858      -10.707164
 C         -16.491562      -47.834942      -10.998862
 C         -15.269450      -47.962399      -11.889147
 C         -17.661036      -47.156876      -11.626931
 C         -15.526472      -48.157814      -13.355445
 C         -17.991243      -47.807449      -12.970584
 C         -16.815203      -47.484627      -13.930596
 H         -14.529738      -48.627319      -11.380757
 H         -14.641277      -47.072453      -11.916443
 H         -18.510733      -47.164848      -10.947585
 H         -17.466440      -46.077885      -11.750871
 H         -15.642357      -49.236687      -13.510812
 H         -14.629709      -47.860638      -13.895304
 H         -18.934927      -47.320118      -13.370275
 H         -18.214148      -48.814018      -12.811571
 H         -17.022398      -47.830441      -14.941751
 H         -16.612984      -46.395145      -13.979699
