20
 generated by VMD
 C          -2.811527       -9.125066        0.063227
 N          -1.670056       -9.196646        0.106226
 H          -2.158587      -11.856497        2.503883
 H          -2.744890      -12.230696        4.177538
 C          -2.956984      -12.390075        3.110745
 C          -2.659236      -13.871707        2.748538
 C          -4.310663      -11.980199        2.565841
 C          -3.809266      -14.841105        2.968326
 C          -5.436711      -12.881254        2.930583
 C          -5.089227      -14.273060        2.354273
 H          -1.844239      -14.297109        3.320115
 H          -2.419035      -14.028753        1.666131
 H          -4.556389      -10.950078        2.976538
 H          -4.241467      -11.798136        1.432748
 H          -4.016915      -14.900540        4.067905
 H          -3.603745      -15.889441        2.593122
 H          -6.330158      -12.519775        2.486976
 H          -5.559337      -12.853155        3.992090
 H          -5.964996      -14.881571        2.451043
 H          -4.936225      -14.173139        1.267145
