20
 generated by VMD
 C         -32.615608      -92.990402      -25.719559
 N         -32.775749      -94.135628      -25.640730
 H         -33.577503      -94.906532      -28.697134
 H         -32.674820      -91.981819      -25.822941
 C         -34.128544      -94.062714      -29.082289
 C         -35.359425      -93.538124      -28.378574
 C         -33.800949      -93.277885      -30.278736
 C         -35.235317      -92.105309      -27.972418
 C         -33.602440      -91.848969      -29.881462
 C         -34.663532      -91.150665      -28.989986
 H         -35.638309      -94.031029      -27.370104
 H         -36.205544      -93.649101      -29.094950
 H         -32.976612      -93.752518      -30.793718
 H         -34.640678      -93.353355      -31.012262
 H         -34.459316      -92.102264      -27.226269
 H         -36.014275      -91.564240      -27.482731
 H         -33.325867      -91.404938      -30.856619
 H         -32.737232      -91.795174      -29.283726
 H         -34.094025      -90.262909      -28.536406
 H         -35.479862      -90.808037      -29.656286
