20
 generated by VMD
 C         -48.102459     -140.153870      -45.815155
 N         -46.949383     -139.923889      -45.660912
 H         -51.041916     -139.338608      -45.161636
 H         -49.058842     -140.635590      -46.010876
 C         -51.990673     -139.307297      -45.683266
 C         -52.160549     -139.392990      -47.119984
 C         -53.187813     -139.141235      -44.746433
 C         -53.201435     -140.485107      -47.480198
 C         -54.100948     -140.388214      -45.107948
 C         -54.526443     -140.425583      -46.567436
 H         -51.191048     -139.730896      -47.514725
 H         -52.574326     -138.467392      -47.525280
 H         -52.864147     -139.142914      -43.665802
 H         -53.598145     -138.169678      -45.065788
 H         -52.780479     -141.537704      -47.326042
 H         -53.438812     -140.492203      -48.587009
 H         -54.984085     -140.413177      -44.528427
 H         -53.495182     -141.286636      -44.792442
 H         -55.201042     -141.251633      -46.830379
 H         -55.121841     -139.559891      -46.648323
