20
 generated by VMD
 C         -69.743973     -180.289276      -61.614697
 N         -69.240181     -180.944229      -62.411495
 H         -66.830490     -180.258438      -59.461548
 H         -70.100937     -179.686340      -60.774010
 C         -66.262115     -179.358643      -59.687260
 C         -65.364952     -179.564713      -60.902176
 C         -65.922409     -178.168045      -58.815979
 C         -65.268478     -178.353271      -61.773273
 C         -65.748566     -176.904724      -59.690674
 C         -64.858398     -177.152756      -60.909328
 H         -65.724281     -180.337463      -61.556568
 H         -64.432182     -179.732391      -60.477428
 H         -66.787010     -178.042801      -58.068825
 H         -65.080383     -178.471451      -58.238998
 H         -66.185623     -178.031754      -62.320000
 H         -64.710533     -178.443604      -62.694401
 H         -65.141052     -176.200287      -59.100185
 H         -66.770821     -176.489182      -59.975731
 H         -64.929260     -176.332245      -61.706993
 H         -63.808605     -177.417999      -60.699047
