20
 generated by VMD
 C         -19.345879      -61.514679      -16.151146
 N         -20.080330      -60.934227      -16.880335
 H         -21.816933      -62.918625      -18.009155
 H         -18.848564      -62.175274      -15.477029
 C         -22.652815      -63.488789      -17.705965
 C         -23.851088      -63.564789      -18.608139
 C         -23.128883      -63.513760      -16.322542
 C         -24.830664      -64.735481      -18.474501
 C         -23.950022      -64.781158      -16.024588
 C         -25.184223      -64.882622      -17.039337
 H         -23.426149      -63.531364      -19.671295
 H         -24.379768      -62.580929      -18.509266
 H         -22.340927      -63.551136      -15.469176
 H         -23.622889      -62.574512      -16.117138
 H         -24.307747      -65.563850      -18.944302
 H         -25.740078      -64.444649      -19.084217
 H         -24.321774      -64.722893      -14.968479
 H         -23.419151      -65.739311      -16.077707
 H         -25.520294      -65.921265      -16.796787
 H         -25.855530      -64.089890      -16.776548
