20
 generated by VMD
 C         -67.481850     -179.887192      -58.346462
 N         -68.529655     -180.169022      -58.698559
 H         -67.179710     -176.487305      -59.860760
 H         -66.478462     -179.670776      -57.944599
 C         -66.227455     -175.999542      -60.048977
 C         -66.037010     -175.150452      -61.344273
 C         -64.872902     -176.626892      -59.437405
 C         -64.893356     -174.177841      -61.077648
 C         -63.865921     -175.540833      -59.227341
 C         -63.648544     -174.966705      -60.601948
 H         -66.880341     -174.650360      -61.695396
 H         -65.631790     -175.744003      -62.155876
 H         -65.342468     -176.964050      -58.504745
 H         -64.623306     -177.465088      -60.063957
 H         -65.152855     -173.411057      -60.263393
 H         -64.710289     -173.572037      -62.044479
 H         -62.912365     -175.953110      -58.981308
 H         -64.187515     -174.784576      -58.453148
 H         -62.837364     -174.243301      -60.496300
 H         -63.285454     -175.553818      -61.384792
