20
 generated by VMD
 C         -47.878712     -136.476318      -45.997013
 N         -46.922230     -136.055130      -46.416653
 H         -50.991413     -135.576889      -45.936092
 H         -48.792820     -136.880722      -45.574749
 C         -51.575390     -136.251297      -45.354515
 C         -52.248623     -137.405624      -46.017567
 C         -51.779625     -136.234573      -43.841881
 C         -51.902527     -138.713272      -45.349339
 C         -51.473583     -137.524536      -43.227924
 C         -52.279549     -138.718277      -43.926941
 H         -51.953522     -137.332642      -47.122612
 H         -53.297283     -137.294098      -46.045719
 H         -51.253441     -135.433044      -43.425053
 H         -52.834370     -136.025970      -43.663212
 H         -50.821941     -138.917938      -45.448963
 H         -52.476494     -139.529846      -45.680557
 H         -51.775120     -137.432602      -42.119545
 H         -50.467079     -137.792618      -43.324787
 H         -52.023540     -139.647308      -43.355297
 H         -53.415146     -138.382584      -43.953178
