20
 generated by VMD
 C         -59.987972     -156.717026      -55.965576
 N         -60.957508     -156.187531      -56.225208
 H         -59.690403     -157.478592      -53.166977
 H         -59.122780     -157.147278      -55.520329
 C         -58.748798     -157.973312      -52.900661
 C         -57.720272     -157.004822      -52.506168
 C         -58.601551     -159.414124      -52.436207
 C         -57.314468     -157.093521      -51.030163
 C         -58.331512     -159.383377      -50.941349
 C         -57.121918     -158.579010      -50.585823
 H         -58.116192     -156.023834      -52.657894
 H         -56.773998     -157.020691      -53.070309
 H         -59.605324     -159.748749      -52.712666
 H         -57.882504     -160.008194      -52.905323
 H         -58.242908     -156.738159      -50.593815
 H         -56.457897     -156.509201      -50.893379
 H         -58.065018     -160.427872      -50.685997
 H         -59.284256     -159.002258      -50.338570
 H         -57.115345     -158.548492      -49.444908
 H         -56.292484     -159.053574      -50.960190
