20
 generated by VMD
 C         -60.671886     -155.967453      -54.282803
 N         -60.902378     -156.286148      -55.357937
 H         -59.372532     -155.933014      -51.079563
 H         -60.356480     -155.792038      -53.280102
 C         -58.410019     -155.556519      -51.381908
 C         -57.583553     -154.664902      -50.546467
 C         -57.552311     -156.399872      -52.448425
 C         -56.339317     -155.276474      -50.036892
 C         -56.370567     -157.223846      -51.767643
 C         -55.479782     -156.171997      -51.044071
 H         -58.081116     -154.198364      -49.720112
 H         -57.283592     -153.733795      -51.158653
 H         -58.223175     -157.082336      -52.916195
 H         -57.237679     -155.614609      -53.204464
 H         -56.763504     -156.003891      -49.256050
 H         -55.632900     -154.585480      -49.594307
 H         -55.726254     -157.715256      -52.453297
 H         -56.896297     -158.032364      -51.071327
 H         -54.613003     -156.695908      -50.619453
 H         -55.046982     -155.506409      -51.847408
