20
 generated by VMD
 C          -1.442611      -10.471388        1.100894
 N          -0.804887      -11.232005        1.544983
 H          -3.748411      -13.141726        0.134444
 H          -5.159823      -12.616230        1.128946
 C          -4.551276      -13.476408        0.845476
 C          -3.792668      -13.890741        2.040412
 C          -5.429648      -14.666975        0.266023
 C          -4.596864      -14.483866        3.194507
 C          -6.343901      -15.193785        1.398465
 C          -5.493680      -15.636249        2.638552
 H          -3.201618      -13.080380        2.520877
 H          -2.997004      -14.661875        1.859272
 H          -5.954928      -14.216963       -0.538041
 H          -4.752509      -15.410991       -0.004247
 H          -5.267826      -13.767809        3.750473
 H          -3.905101      -14.944719        3.941895
 H          -6.951039      -16.050817        1.083879
 H          -7.002402      -14.360062        1.776358
 H          -6.189264      -15.912414        3.405743
 H          -4.915751      -16.500113        2.389063
