20
 generated by VMD
 C         -70.652374     -196.884460      -65.151505
 N         -69.873894     -197.561905      -65.654167
 H         -73.585846     -196.360947      -65.544014
 H         -71.560204     -196.368652      -64.827629
 C         -73.456436     -195.833145      -66.477097
 C         -72.958649     -194.410522      -66.181198
 C         -74.318527     -196.032669      -67.643402
 C         -72.590858     -193.640961      -67.415970
 C         -74.683769     -194.724518      -68.356216
 C         -73.426125     -193.888702      -68.694107
 H         -72.038589     -194.478958      -65.641434
 H         -73.940086     -193.960876      -65.664062
 H         -73.795662     -196.730164      -68.332718
 H         -75.220688     -196.492035      -67.247726
 H         -71.578491     -193.879486      -67.716187
 H         -72.647766     -192.593567      -67.209587
 H         -75.400665     -194.031937      -67.864586
 H         -75.215324     -195.078979      -69.244469
 H         -72.824112     -194.304764      -69.656921
 H         -73.897774     -192.994186      -68.959808
