20
 generated by VMD
 C         -11.388335      -34.001328       -8.337037
 N         -10.711207      -34.460426       -9.099647
 H         -11.719063      -37.660507       -7.941849
 H         -12.494447      -37.175148       -6.427371
 C         -12.577632      -37.853981       -7.302632
 C         -12.513995      -39.259109       -6.687484
 C         -13.886567      -37.671463       -8.041384
 C         -13.789499      -39.579773       -5.840537
 C         -15.144838      -38.146633       -7.254559
 C         -14.947261      -39.526085       -6.750963
 H         -11.754666      -39.312279       -5.925060
 H         -12.399772      -39.973392       -7.513847
 H         -13.903856      -36.628887       -8.251056
 H         -13.755696      -38.273350       -9.004761
 H         -13.925500      -38.910889       -4.961815
 H         -13.675011      -40.646969       -5.547609
 H         -15.949395      -38.146671       -7.963573
 H         -15.478674      -37.426327       -6.414887
 H         -15.872485      -39.853794       -6.248596
 H         -14.795778      -40.242935       -7.587130
