20
 generated by VMD
 C         -57.268902     -163.108246      -56.486809
 N         -57.161438     -162.332840      -57.282406
 H         -59.694824     -165.081253      -54.853645
 H         -57.305401     -163.845428      -55.689449
 C         -60.685947     -164.594879      -54.735401
 C         -61.308849     -164.837372      -53.381527
 C         -61.556671     -164.447250      -55.916332
 C         -62.408367     -163.759918      -53.181282
 C         -62.916161     -163.795151      -55.599243
 C         -63.445126     -164.074997      -54.192162
 H         -60.587357     -164.610229      -52.626720
 H         -61.615227     -165.882156      -53.254234
 H         -61.133167     -163.879562      -56.758801
 H         -61.729107     -165.473068      -56.298702
 H         -62.011181     -162.694443      -53.259735
 H         -62.769325     -163.903458      -52.175087
 H         -63.512016     -164.279190      -56.326191
 H         -62.688656     -162.737549      -55.655991
 H         -64.354073     -163.539139      -54.088684
 H         -63.861420     -165.012726      -54.159866
