20
 generated by VMD
 C         -47.153885     -137.760193      -46.209969
 N         -47.219879     -137.081238      -47.091637
 H         -50.561214     -136.582535      -44.487995
 H         -47.174587     -138.598022      -45.528374
 C         -51.327698     -137.333786      -44.710274
 C         -51.431633     -138.088074      -46.063889
 C         -52.607281     -137.257416      -43.909782
 C         -52.147327     -139.390823      -45.762478
 C         -53.342697     -138.509354      -43.846043
 C         -53.480042     -139.178787      -45.189415
 H         -50.398861     -138.185043      -46.536934
 H         -51.983509     -137.508698      -46.715416
 H         -52.396358     -136.869522      -42.894756
 H         -53.214237     -136.440353      -44.349129
 H         -51.636650     -140.232101      -45.260216
 H         -52.242695     -139.874786      -46.761475
 H         -54.330151     -138.402222      -43.323406
 H         -52.965504     -139.189957      -43.066887
 H         -54.127899     -140.095856      -45.182281
 H         -54.107170     -138.615204      -45.781761
