20
 generated by VMD
 C         -11.406412      -32.318871       -8.903770
 N         -12.155527      -32.745716       -9.594833
 H         -11.549830      -33.799610       -6.419220
 H         -12.370486      -33.991093       -4.851588
 C         -12.043253      -34.550423       -5.739437
 C         -10.970019      -35.635250       -5.614262
 C         -13.216425      -35.275581       -6.496007
 C         -11.466684      -36.791553       -4.779947
 C         -13.805296      -36.459763       -5.717407
 C         -12.723325      -37.459267       -5.316711
 H         -10.153361      -35.146488       -5.084357
 H         -10.652172      -36.021328       -6.627300
 H         -13.892102      -34.483437       -6.811177
 H         -12.844956      -35.637535       -7.450469
 H         -11.778237      -36.377815       -3.816282
 H         -10.719252      -37.560284       -4.724386
 H         -14.536553      -36.940651       -6.416128
 H         -14.287180      -36.104706       -4.833045
 H         -13.038324      -38.265732       -4.654240
 H         -12.369449      -37.950058       -6.291724
