20
 generated by VMD
 C         -58.500065     -151.467346      -49.572662
 N         -58.991512     -152.164856      -48.756962
 H         -55.545109     -149.758789      -47.704933
 H         -58.113049     -150.724991      -50.319004
 C         -55.108715     -149.510727      -48.710278
 C         -54.280548     -150.495148      -49.375225
 C         -54.835602     -148.118408      -49.021187
 C         -54.185200     -150.124207      -50.879040
 C         -54.861835     -147.808273      -50.451195
 C         -53.832546     -148.668533      -51.135532
 H         -54.644047     -151.518631      -49.254204
 H         -53.264908     -150.695251      -48.880642
 H         -55.724808     -147.655289      -48.477894
 H         -53.906479     -147.702286      -48.537807
 H         -55.116905     -150.200195      -51.457134
 H         -53.528099     -150.831329      -51.442890
 H         -54.506317     -146.865952      -50.450459
 H         -55.933067     -147.875900      -50.901329
 H         -53.916496     -148.459106      -52.251545
 H         -52.844448     -148.444962      -50.831551
