20
 generated by VMD
 C         -11.290110      -38.923275       -6.529306
 N         -11.906867      -38.671391       -7.434230
 H         -12.724618      -41.513050       -9.041628
 H         -13.712098      -40.223930       -8.217371
 C         -13.767243      -41.195034       -8.894826
 C         -14.501033      -42.222031       -8.060703
 C         -14.380922      -40.894291      -10.217475
 C         -15.885773      -41.672371       -7.856791
 C         -15.884066      -40.588692      -10.118280
 C         -16.591589      -41.566345       -9.189651
 H         -13.992290      -42.347202       -7.096174
 H         -14.487330      -43.180782       -8.637773
 H         -13.826573      -40.021664      -10.580308
 H         -14.177592      -41.724216      -10.909450
 H         -15.778605      -40.631001       -7.450415
 H         -16.479034      -42.300423       -7.214898
 H         -16.409431      -40.663845      -11.121190
 H         -16.025341      -39.591564       -9.775409
 H         -17.628546      -41.245167       -9.034963
 H         -16.737823      -42.555328       -9.625103
