20
 generated by VMD
 C         -58.566063     -151.777084      -49.677330
 N         -59.375877     -152.219528      -48.932873
 H         -55.672398     -149.945221      -47.806065
 H         -57.743507     -151.325195      -50.274700
 C         -55.095375     -149.549194      -48.643032
 C         -54.216038     -150.470917      -49.421051
 C         -54.833164     -148.141312      -48.984215
 C         -54.242821     -150.268784      -50.877869
 C         -54.710674     -147.884323      -50.451614
 C         -53.885288     -148.840393      -51.231129
 H         -54.528843     -151.470749      -49.147034
 H         -53.216732     -150.506226      -49.112789
 H         -55.726387     -147.603790      -48.510952
 H         -53.934769     -147.854187      -48.377968
 H         -55.225143     -150.493607      -51.347672
 H         -53.489212     -150.875015      -51.376316
 H         -54.353794     -146.763977      -50.561802
 H         -55.777943     -148.041504      -50.687393
 H         -54.103127     -148.711502      -52.320503
 H         -52.771748     -148.641113      -51.040955
