20
 generated by VMD
 C         -49.473186     -127.526756      -39.471092
 N         -50.466221     -127.430016      -40.021931
 H         -47.032681     -127.313843      -42.490562
 H         -48.725452     -127.636703      -38.722290
 C         -46.292374     -126.545128      -42.061272
 C         -45.638313     -127.074760      -40.848843
 C         -46.561146     -125.155640      -42.042343
 C         -44.416702     -126.329491      -40.328419
 C         -45.401497     -124.216362      -41.574757
 C         -44.758778     -124.767891      -40.288273
 H         -45.293232     -128.058167      -41.162910
 H         -46.414360     -127.051094      -40.038269
 H         -46.915493     -124.780708      -43.020855
 H         -47.254452     -125.016548      -41.269516
 H         -43.524071     -126.461716      -40.985039
 H         -44.172226     -126.724220      -39.296131
 H         -45.928185     -123.150238      -41.487904
 H         -44.558514     -124.166084      -42.332462
 H         -43.966320     -124.112686      -39.860596
 H         -45.492851     -124.790215      -39.527111
