20
 generated by VMD
 C         -79.820358     -206.694183      -73.246506
 N         -79.637085     -206.217178      -74.325417
 H         -78.336182     -205.524536      -70.629402
 H         -79.654358     -207.053818      -72.228455
 C         -77.334793     -205.622665      -70.261383
 C         -76.288811     -204.824570      -70.977051
 C         -76.897453     -206.949219      -69.671860
 C         -74.903206     -204.891861      -70.463104
 C         -75.491714     -206.982025      -69.141174
 C         -74.516319     -206.421783      -70.204788
 H         -76.705208     -203.842087      -70.835449
 H         -76.346420     -205.059219      -72.103996
 H         -77.505302     -207.168381      -68.797668
 H         -77.195190     -207.667999      -70.444229
 H         -74.809555     -204.335754      -69.469093
 H         -74.179665     -204.453568      -71.223427
 H         -75.084290     -207.996338      -68.921188
 H         -75.469086     -206.435669      -68.162872
 H         -73.455177     -206.456879      -70.061134
 H         -74.760902     -207.038437      -71.111427
