20
 generated by VMD
 C         -50.667931     -129.556152      -45.637627
 N         -51.288940     -130.587982      -45.522083
 H         -48.261799     -130.936890      -44.069508
 H         -50.204781     -128.546432      -45.671932
 C         -48.189907     -130.966415      -42.933224
 C         -48.338844     -132.255295      -42.213120
 C         -47.886002     -129.652054      -42.083466
 C         -47.172859     -132.496185      -41.247147
 C         -46.735756     -129.910629      -41.115421
 C         -47.014015     -131.273682      -40.342957
 H         -48.537392     -133.015579      -42.902882
 H         -49.309811     -132.224854      -41.582333
 H         -47.600761     -128.771820      -42.682358
 H         -48.704411     -129.508865      -41.498432
 H         -46.275833     -132.666580      -41.871590
 H         -47.257324     -133.419418      -40.610352
 H         -46.687500     -129.223770      -40.323620
 H         -45.800991     -129.989258      -41.678379
 H         -46.208813     -131.446594      -39.621742
 H         -47.919281     -131.360611      -39.683651
