20
 generated by VMD
 C         -19.895294      -51.532246      -10.221679
 N         -20.755766      -51.182003       -9.525095
 H         -17.136831      -48.798351      -10.228849
 H         -19.411112      -51.718300      -11.014799
 C         -17.213367      -48.997265      -11.252116
 C         -16.330517      -50.179497      -11.631486
 C         -17.418146      -47.809814      -12.125680
 C         -16.520664      -50.546021      -13.098066
 C         -17.452974      -48.287895      -13.613632
 C         -16.382999      -49.322914      -14.009869
 H         -16.634966      -50.991688      -11.039103
 H         -15.258510      -50.021484      -11.454394
 H         -18.361038      -47.283401      -11.841152
 H         -16.678391      -47.028763      -12.016310
 H         -17.500015      -50.880676      -13.276606
 H         -15.821977      -51.338650      -13.328079
 H         -17.312138      -47.453346      -14.289496
 H         -18.432419      -48.731163      -13.722886
 H         -16.492346      -49.577034      -15.050297
 H         -15.419814      -48.891289      -13.950575
