20
 generated by VMD
 C         -50.043270     -142.967148      -45.215206
 N         -48.950146     -143.244064      -45.395821
 H         -52.180004     -140.136337      -45.402008
 H         -51.057968     -142.549438      -45.100079
 C         -52.605793     -140.782074      -46.175533
 C         -52.117508     -141.081650      -47.569263
 C         -54.081432     -140.619873      -46.018398
 C         -52.855930     -142.084534      -48.339764
 C         -54.823826     -141.776657      -46.759361
 C         -54.472736     -141.841263      -48.301907
 H         -51.044006     -141.232300      -47.407387
 H         -52.168747     -140.194962      -48.140636
 H         -54.435154     -140.666016      -44.930725
 H         -54.272667     -139.483536      -46.287380
 H         -52.678761     -142.998520      -47.942852
 H         -52.514629     -142.142166      -49.321220
 H         -55.890377     -141.637527      -46.739780
 H         -54.637650     -142.614532      -46.127003
 H         -54.870583     -142.717880      -48.671223
 H         -54.751450     -140.961273      -48.788197
