20
 generated by VMD
 C         -76.989120     -203.511261      -66.800018
 N         -77.790390     -204.134216      -66.205940
 H         -75.490028     -200.561020      -68.201729
 H         -76.228424     -202.877411      -67.294624
 C         -74.807381     -200.013504      -68.911575
 C         -74.803864     -198.511047      -68.696510
 C         -73.750305     -200.738266      -69.802238
 C         -73.441574     -197.977310      -68.999626
 C         -72.860855     -199.799042      -70.721985
 C         -73.064507     -198.231247      -70.467056
 H         -75.224258     -198.231277      -67.736664
 H         -75.506462     -198.177292      -69.438393
 H         -72.941818     -201.123642      -69.091736
 H         -74.332390     -201.440781      -70.353149
 H         -72.690956     -198.229950      -68.233559
 H         -73.486031     -196.856796      -69.008247
 H         -73.024567     -200.083221      -71.769379
 H         -71.804680     -200.064468      -70.537903
 H         -72.057045     -197.683060      -70.692924
 H         -73.924965     -197.803207      -71.103844
