20
 generated by VMD
 C         -22.541420      -55.147957      -15.420358
 N         -23.247385      -55.236294      -16.294210
 H         -19.157293      -54.500408      -15.441994
 H         -21.900293      -54.951401      -14.441429
 C         -19.172239      -55.374252      -14.817305
 C         -19.109507      -55.264935      -13.293009
 C         -19.474257      -56.696846      -15.457359
 C         -19.674295      -56.501286      -12.604807
 C         -19.488537      -57.977993      -14.596189
 C         -18.995564      -57.769077      -13.149196
 H         -19.566660      -54.323032      -13.027146
 H         -18.072266      -55.088326      -12.909746
 H         -20.279684      -56.765472      -16.130877
 H         -18.654118      -56.642494      -16.229202
 H         -20.755957      -56.497803      -12.776946
 H         -19.450090      -56.482822      -11.522140
 H         -19.000267      -58.850204      -15.097586
 H         -20.554802      -58.287022      -14.563106
 H         -19.352238      -58.554874      -12.483820
 H         -17.887709      -57.680721      -13.026861
