20
 generated by VMD
 C         -41.363949     -119.243042      -34.636692
 N         -40.630356     -119.525330      -35.500580
 H         -43.291756     -117.756073      -36.452454
 H         -42.099045     -119.292656      -33.766228
 C         -43.853390     -117.835754      -37.434055
 C         -42.948647     -118.011749      -38.610851
 C         -45.215225     -117.150818      -37.589603
 C         -43.693382     -118.460152      -39.815022
 C         -45.954304     -117.710258      -38.834675
 C         -45.047310     -117.723961      -40.000927
 H         -42.263870     -118.911789      -38.356014
 H         -42.321217     -117.023499      -38.830376
 H         -45.857277     -117.238396      -36.661156
 H         -44.930099     -116.151344      -37.654438
 H         -43.815605     -119.569160      -39.815033
 H         -43.066799     -118.220993      -40.785275
 H         -46.884323     -117.313797      -38.991562
 H         -46.249676     -118.702583      -38.564217
 H         -45.623863     -118.398033      -40.678349
 H         -45.014294     -116.843369      -40.511566
