20
 generated by VMD
 C         -59.254822     -158.345551      -55.988930
 N         -58.913391     -158.557709      -57.129505
 H         -60.643810     -157.998901      -52.542873
 H         -59.577744     -158.021317      -54.949982
 C         -59.999371     -158.811081      -52.957516
 C         -58.498207     -158.697540      -52.752335
 C         -60.496593     -160.133545      -53.206879
 C         -58.142914     -159.618942      -51.612373
 C         -60.092587     -161.166962      -52.196526
 C         -58.594177     -161.047043      -52.005508
 H         -58.316296     -157.682617      -52.603683
 H         -58.079899     -159.059082      -53.666737
 H         -61.531769     -160.015976      -53.269398
 H         -60.118774     -160.538162      -54.194965
 H         -58.737545     -159.208786      -50.737877
 H         -57.166882     -159.657227      -51.394295
 H         -60.144615     -162.236938      -52.500065
 H         -60.750912     -160.998672      -51.377266
 H         -58.339134     -161.722137      -51.152851
 H         -58.017761     -161.290878      -52.833012
