20
 generated by VMD
 C         -50.761955     -129.632217      -45.964096
 N         -50.954830     -130.527725      -45.204815
 H         -48.044075     -131.054565      -44.257912
 H         -50.521595     -128.588837      -46.203762
 C         -48.142380     -131.264862      -43.125198
 C         -48.341652     -132.513321      -42.377716
 C         -47.975994     -130.050629      -42.338753
 C         -47.350666     -132.735916      -41.201530
 C         -46.969284     -130.197525      -41.180492
 C         -47.343254     -131.385681      -40.291119
 H         -48.160606     -133.472809      -43.016083
 H         -49.348244     -132.486588      -42.099857
 H         -47.679283     -129.212250      -42.929951
 H         -49.018822     -129.738922      -41.927776
 H         -46.301437     -132.938751      -41.482368
 H         -47.835201     -133.563095      -40.637943
 H         -47.001091     -129.251205      -40.521915
 H         -45.957779     -130.368408      -41.578178
 H         -46.853352     -131.663010      -39.350872
 H         -48.365517     -131.298965      -39.956421
