20
 generated by VMD
 C         -17.758282      -48.336464       -6.852014
 N         -17.173168      -47.461147       -6.513156
 H         -16.393696      -48.648708      -10.590696
 H         -15.600544      -48.527626      -12.256544
 C         -16.255899      -48.058414      -11.496721
 C         -15.603292      -46.704376      -11.132950
 C         -17.599125      -47.946232      -12.214518
 C         -15.406355      -45.956585      -12.452448
 C         -17.577503      -47.123077      -13.523904
 C         -16.779320      -45.832443      -13.161181
 H         -14.602795      -46.877907      -10.759764
 H         -16.220406      -46.138496      -10.420025
 H         -17.978390      -48.977695      -12.468547
 H         -18.365923      -47.564342      -11.496825
 H         -14.703166      -46.494125      -13.097783
 H         -14.930538      -44.982395      -12.301666
 H         -18.588116      -46.755085      -13.829086
 H         -17.219923      -47.737598      -14.254396
 H         -16.638470      -45.254639      -14.056791
 H         -17.412624      -45.155575      -12.582087
