20
 generated by VMD
 C         -67.683884     -191.721420      -67.155540
 N         -66.848007     -192.452286      -66.776085
 H         -70.626282     -189.269531      -66.294395
 H         -68.504173     -191.075180      -67.299377
 C         -71.281151     -189.748566      -65.545631
 C         -71.747826     -191.134384      -65.699921
 C         -71.324730     -189.264023      -64.150764
 C         -73.167099     -191.275803      -65.374084
 C         -72.683510     -189.517990      -63.483109
 C         -73.278557     -190.875153      -63.840309
 H         -71.135773     -191.822037      -65.137161
 H         -71.573929     -191.391495      -66.767105
 H         -70.488716     -189.738846      -63.568760
 H         -71.036415     -188.174271      -63.960732
 H         -73.546654     -192.269455      -65.559906
 H         -73.713478     -190.495499      -65.878448
 H         -73.475906     -188.790344      -63.736320
 H         -72.533119     -189.631882      -62.450714
 H         -72.857414     -191.749817      -63.327251
 H         -74.325020     -190.959839      -63.260128
