20
 generated by VMD
 C         -78.217873     -203.937210      -69.194267
 N         -79.101746     -204.123184      -69.876091
 H         -75.786499     -202.297318      -67.685036
 H         -77.249435     -203.760651      -68.687897
 C         -75.120171     -202.016357      -68.551384
 C         -75.174591     -200.552689      -68.890747
 C         -73.908699     -202.855087      -68.858780
 C         -74.826698     -200.298859      -70.361023
 C         -72.898407     -201.953140      -69.668419
 C         -73.612465     -201.099701      -70.660805
 H         -74.467125     -200.024582      -68.217659
 H         -76.145409     -200.199219      -68.592461
 H         -73.473167     -203.288589      -67.945549
 H         -74.168396     -203.681305      -69.407066
 H         -74.625778     -199.216156      -70.440590
 H         -75.668495     -200.578354      -70.961479
 H         -72.143562     -202.681030      -70.050499
 H         -72.392906     -201.196243      -69.022179
 H         -72.825897     -200.439117      -71.138245
 H         -73.948097     -201.865402      -71.522568
