20
 generated by VMD
 C         -50.350945     -129.524048      -43.458874
 N         -50.854618     -129.674500      -44.551826
 H         -49.038189     -127.945412      -40.724316
 H         -49.926571     -129.292938      -42.492279
 C         -47.931679     -128.144577      -40.815575
 C         -47.609776     -129.571091      -40.732983
 C         -46.910789     -127.075462      -40.712971
 C         -46.374012     -129.938690      -41.569443
 C         -45.746059     -127.347763      -41.567944
 C         -45.296871     -128.881226      -41.309433
 H         -48.410084     -130.180054      -41.058609
 H         -47.460621     -129.754013      -39.615772
 H         -47.430614     -126.066208      -40.950802
 H         -46.600040     -126.957939      -39.640469
 H         -46.742191     -129.927444      -42.536198
 H         -46.010532     -130.940140      -41.235298
 H         -44.845711     -126.825531      -41.318604
 H         -46.049751     -127.267357      -42.572369
 H         -44.467785     -129.017746      -42.005825
 H         -44.993572     -128.974319      -40.256355
