20
 generated by VMD
 C         -56.076382     -149.285599      -45.879425
 N         -55.907688     -150.239243      -45.277885
 H         -53.893929     -148.085724      -47.999847
 H         -56.274734     -148.356079      -46.335102
 C         -53.995613     -147.347244      -48.737656
 C         -53.066189     -147.467041      -49.848846
 C         -54.786793     -146.181549      -48.579945
 C         -53.618275     -146.929291      -51.126328
 C         -55.279537     -145.533035      -49.883316
 C         -54.161919     -145.531204      -50.942955
 H         -53.048119     -148.648834      -50.035809
 H         -52.099514     -146.977951      -49.605591
 H         -55.720665     -146.473328      -47.970085
 H         -54.221840     -145.498550      -47.882469
 H         -54.482372     -147.482056      -51.506489
 H         -52.820026     -146.973373      -51.948086
 H         -55.426773     -144.473099      -49.594582
 H         -56.319408     -145.756744      -50.169876
 H         -54.435463     -145.064209      -51.886318
 H         -53.294312     -144.981705      -50.515415
