20
 generated by VMD
 C         -61.114277     -154.958252      -53.502518
 N         -61.362000     -154.634216      -52.398277
 H         -57.852684     -154.779861      -52.560936
 H         -60.904316     -155.215912      -54.560047
 C         -57.085941     -154.405975      -51.887138
 C         -57.340439     -154.177811      -50.446106
 C         -55.829296     -153.942627      -52.496681
 C         -56.193951     -154.601273      -49.556839
 C         -54.727486     -154.384171      -51.637772
 C         -54.947357     -153.953537      -50.108643
 H         -58.158714     -154.777161      -50.044590
 H         -57.493721     -153.111786      -50.479267
 H         -55.841190     -154.380173      -53.466515
 H         -55.890385     -152.878342      -52.750977
 H         -56.096779     -155.650406      -49.488873
 H         -56.104736     -154.292496      -48.538254
 H         -53.742123     -154.078598      -51.945515
 H         -54.668186     -155.488205      -51.714207
 H         -54.094257     -154.495026      -49.456055
 H         -54.961765     -152.879501      -50.066364
