20
 generated by VMD
 C          -1.628736      -14.078761        1.666993
 N          -1.904799      -13.060822        1.312149
 H          -3.734035      -17.198631        1.343972
 H          -4.197064      -17.059036       -0.346417
 C          -4.594959      -17.067451        0.682604
 C          -5.238283      -15.784710        1.044328
 C          -5.573689      -18.265036        0.929777
 C          -6.416361      -15.486959        0.103509
 C          -6.831841      -18.045607        0.097802
 C          -7.443351      -16.671490        0.190175
 H          -4.530281      -14.906574        0.920375
 H          -5.504681      -15.778276        2.091226
 H          -4.967759      -19.173517        0.622373
 H          -5.796090      -18.338537        2.052683
 H          -5.994480      -15.487095       -0.907544
 H          -6.821286      -14.489821        0.300631
 H          -7.507372      -18.855385        0.277233
 H          -6.489475      -18.067530       -0.917976
 H          -8.245881      -16.514400       -0.521981
 H          -7.887292      -16.630894        1.197080
