20
 generated by VMD
 C         -30.000713      -80.149284      -26.491518
 N         -29.707438      -79.127480      -26.022789
 H         -28.522274      -82.871857      -25.661495
 H         -30.113716      -81.169548      -26.677736
 C         -29.238344      -82.851372      -24.770504
 C         -28.876030      -81.872200      -23.598732
 C         -30.029474      -84.143982      -24.544540
 C         -30.132027      -81.763382      -22.604511
 C         -31.189579      -83.920998      -23.561529
 C         -30.644327      -83.146248      -22.320972
 H         -28.468128      -80.965393      -23.860100
 H         -28.119473      -82.360359      -22.945448
 H         -30.321486      -84.404640      -25.558525
 H         -29.347099      -84.952652      -24.101545
 H         -31.074106      -81.259094      -23.132660
 H         -29.871166      -81.371681      -21.670956
 H         -31.514442      -84.937645      -23.273432
 H         -32.136742      -83.334656      -23.986607
 H         -31.506660      -83.196884      -21.724417
 H         -29.833361      -83.766495      -21.819685
