20
 generated by VMD
 C         -12.017810      -39.507839       -6.570610
 N         -11.075340      -39.228382       -7.054921
 H         -12.822141      -41.205421       -8.990621
 H         -14.063169      -39.926697       -8.703580
 C         -13.951657      -40.985943       -9.077453
 C         -14.631513      -41.856434       -8.010639
 C         -14.533288      -41.180862      -10.443486
 C         -16.136787      -41.743763       -8.012814
 C         -16.015989      -41.135124      -10.494618
 C         -16.668383      -42.012798       -9.372682
 H         -14.131087      -41.638794       -7.049590
 H         -14.329565      -42.933731       -8.144010
 H         -14.075718      -40.461346      -11.098721
 H         -14.105021      -42.120190      -10.844207
 H         -16.514271      -40.784355       -7.673013
 H         -16.569792      -42.446976       -7.261072
 H         -16.466589      -41.454216      -11.465259
 H         -16.355005      -40.138836      -10.206169
 H         -17.743662      -41.878319       -9.376178
 H         -16.470602      -43.057571       -9.694518
