20
 generated by VMD
 C         -73.949730     -200.749619      -65.522896
 N         -72.877678     -201.107651      -65.241180
 H         -73.825325     -198.175873      -66.641808
 H         -74.874405     -200.163605      -65.603050
 C         -73.871773     -197.505295      -67.486732
 C         -74.335342     -196.067520      -67.392738
 C         -73.232063     -198.138992      -68.709763
 C         -73.578056     -195.208450      -68.507301
 C         -73.718262     -197.402618      -69.950836
 C         -73.764877     -195.874786      -69.853104
 H         -74.208252     -195.637390      -66.394791
 H         -75.397675     -195.925385      -67.758560
 H         -72.185425     -197.905350      -68.638710
 H         -73.505867     -199.224258      -68.738777
 H         -72.516411     -195.107971      -68.356766
 H         -73.967400     -194.195679      -68.625740
 H         -74.744118     -197.768799      -70.119774
 H         -73.188927     -197.819366      -70.914734
 H         -73.044746     -195.441162      -70.498169
 H         -74.763687     -195.460495      -70.104019
