20
 generated by VMD
 C         -50.480980     -145.060028      -45.182877
 N         -50.409096     -145.439392      -44.059086
 H         -52.933773     -143.548264      -46.041435
 H         -50.599400     -144.787003      -46.257465
 C         -53.440800     -143.118515      -46.910480
 C         -52.634426     -143.301437      -48.107742
 C         -54.730423     -142.388000      -46.933060
 C         -53.335281     -143.337326      -49.487045
 C         -55.489410     -142.499039      -48.357666
 C         -54.452564     -142.273849      -49.529839
 H         -51.946823     -144.190048      -47.937634
 H         -51.975368     -142.388123      -47.888851
 H         -55.379669     -142.776581      -46.091644
 H         -54.542042     -141.333755      -46.728149
 H         -53.694305     -144.443146      -49.486305
 H         -52.579273     -143.191788      -50.318836
 H         -56.336239     -141.784622      -48.304604
 H         -55.865978     -143.508698      -48.396114
 H         -55.021381     -142.369446      -50.553493
 H         -54.056545     -141.185013      -49.496117
