20
 generated by VMD
 C         -41.744667     -101.482147      -32.743206
 N         -41.474461     -101.582954      -33.884186
 H         -38.741047     -102.874641      -32.499565
 H         -42.052101     -101.150291      -31.698620
 C         -37.833046     -103.207161      -32.043228
 C         -36.671879     -103.066544      -33.063694
 C         -37.539494     -103.666855      -30.665409
 C         -35.388233     -102.546371      -32.351589
 C         -36.414536     -102.694664      -30.087523
 C         -35.111637     -102.972031      -30.949802
 H         -36.873119     -102.419174      -33.932854
 H         -36.367531     -104.021980      -33.407970
 H         -38.274601     -103.531662      -29.936520
 H         -37.096478     -104.632927      -30.561443
 H         -35.379929     -101.377594      -32.247112
 H         -34.440651     -102.777824      -32.921272
 H         -36.339802     -102.872894      -28.975536
 H         -36.796890     -101.640411      -30.194645
 H         -34.260014     -102.354675      -30.675337
 H         -34.879475     -104.063919      -30.802790
