20
 generated by VMD
 C          -2.458134      -16.620010        2.691104
 N          -1.708411      -17.300793        2.229840
 H          -4.745429      -16.187346        0.407540
 H          -4.641459      -17.538183       -0.778418
 C          -5.332012      -16.984125       -0.118126
 C          -6.372975      -16.231039       -1.012232
 C          -5.989348      -18.024847        0.777721
 C          -7.168753      -17.316254       -1.750679
 C          -6.926705      -18.952124        0.068639
 C          -7.886836      -18.319345       -0.841398
 H          -5.830566      -15.528482       -1.661112
 H          -7.062692      -15.619884       -0.411300
 H          -5.245052      -18.540192        1.357848
 H          -6.566941      -17.523153        1.549199
 H          -6.535764      -17.855789       -2.469041
 H          -7.932604      -16.896261       -2.421297
 H          -7.437207      -19.531885        0.861061
 H          -6.296685      -19.684507       -0.385016
 H          -8.421448      -19.074507       -1.444615
 H          -8.678314      -17.750862       -0.313202
