20
 generated by VMD
 C         -60.910885     -154.579590      -51.215023
 N         -61.092972     -154.137939      -52.321869
 H         -57.401772     -154.007889      -52.964668
 H         -60.559753     -154.975418      -50.230415
 C         -56.779572     -153.658798      -52.144756
 C         -57.192001     -153.952744      -50.755264
 C         -55.559616     -152.834015      -52.380756
 C         -55.983231     -154.222885      -49.889114
 C         -54.302559     -153.139801      -51.459747
 C         -54.748318     -153.303162      -49.917904
 H         -58.011379     -154.683853      -50.750023
 H         -57.758175     -153.076447      -50.547611
 H         -55.225826     -152.923874      -53.417404
 H         -55.734932     -151.776642      -52.292473
 H         -55.705353     -155.285126      -49.977417
 H         -56.370449     -154.245148      -48.878803
 H         -53.680439     -152.135742      -51.524803
 H         -53.672863     -153.936203      -51.753147
 H         -53.966831     -153.518814      -49.237965
 H         -55.069519     -152.290161      -49.510674
