20
 generated by VMD
 C         -12.383435      -28.407995       -5.634027
 N         -13.304502      -27.845551       -5.922063
 H         -11.811182      -31.452414       -4.216980
 H         -11.211928      -30.058044       -5.026274
 C         -10.860879      -30.926155       -4.349774
 C          -9.826232      -31.775621       -5.006693
 C         -10.336584      -30.431585       -3.057128
 C          -8.544819      -30.981102       -5.257372
 C          -9.251588      -29.516146       -3.295394
 C          -8.081697      -30.270777       -3.924041
 H         -10.333711      -32.188702       -5.923622
 H          -9.528173      -32.623318       -4.439854
 H         -11.069341      -29.956959       -2.442845
 H         -10.010710      -31.308355       -2.521419
 H          -8.761076      -30.271536       -6.000931
 H          -7.740576      -31.616623       -5.578930
 H          -8.873775      -29.102875       -2.309133
 H          -9.564702      -28.663401       -3.846685
 H          -7.303117      -29.530058       -4.114840
 H          -7.698918      -31.022268       -3.193351
