20
 generated by VMD
 C         -47.206841     -137.599182      -46.206566
 N         -47.162525     -136.829041      -47.138947
 H         -50.529041     -136.403381      -44.656532
 H         -47.018017     -138.119034      -45.279205
 C         -51.250072     -137.178162      -44.712914
 C         -51.372356     -137.987549      -46.015667
 C         -52.572437     -137.040329      -43.885090
 C         -52.121811     -139.319809      -45.750221
 C         -53.157917     -138.414597      -43.638004
 C         -53.468033     -139.098373      -44.987076
 H         -50.382080     -138.106415      -46.453236
 H         -51.837143     -137.349854      -46.796543
 H         -52.293736     -136.465652      -42.986588
 H         -53.265202     -136.269165      -44.425171
 H         -51.485588     -140.109283      -45.311138
 H         -52.332687     -139.744232      -46.697289
 H         -54.025490     -138.341446      -43.107700
 H         -52.625637     -139.178970      -43.043472
 H         -54.009407     -139.964722      -44.830391
 H         -54.161949     -138.575317      -45.528988
