20
 generated by VMD
 C         -23.126945      -54.946487      -16.774029
 N         -23.699499      -55.126518      -15.783490
 H         -19.854225      -55.439022      -15.435854
 H         -22.311432      -55.195026      -17.571646
 C         -19.207375      -55.997204      -14.779785
 C         -19.309109      -55.847942      -13.256858
 C         -18.485167      -57.165741      -15.228749
 C         -20.272631      -56.988255      -12.904522
 C         -19.071373      -58.428818      -14.675669
 C         -19.698643      -58.383011      -13.322522
 H         -19.592793      -54.847969      -12.974241
 H         -18.364380      -55.948467      -12.782669
 H         -18.551712      -57.383392      -16.333679
 H         -17.453568      -57.087711      -15.038780
 H         -21.256306      -56.768394      -13.347487
 H         -20.442068      -57.064747      -11.825493
 H         -18.267958      -59.204811      -14.630996
 H         -19.852852      -58.727825      -15.442692
 H         -20.503975      -59.134178      -13.370571
 H         -19.056622      -58.790508      -12.551521
