20
 generated by VMD
 C         -78.349503     -209.797409      -77.198242
 N         -78.938087     -208.841721      -77.211006
 H         -78.360497     -210.753448      -73.736000
 H         -77.743904     -210.738831      -77.194481
 C         -78.675110     -211.430939      -72.917480
 C         -77.599945     -211.637527      -71.933487
 C         -79.886040     -212.231674      -72.934700
 C         -78.061203     -212.143677      -70.464523
 C         -80.371605     -212.717560      -71.576607
 C         -79.180901     -213.093597      -70.642105
 H         -77.083786     -210.661377      -71.825813
 H         -76.963402     -212.439835      -72.337250
 H         -80.698708     -211.761871      -73.459991
 H         -79.735077     -213.191681      -73.505180
 H         -78.303482     -211.250351      -69.802704
 H         -77.219406     -212.717361      -70.030487
 H         -81.195595     -213.503799      -71.657318
 H         -80.911385     -211.825211      -71.112366
 H         -79.737320     -213.074005      -69.666206
 H         -78.789146     -214.122559      -70.665298
