20
 generated by VMD
 C         -60.498653     -155.954910      -54.219826
 N         -61.004623     -156.331909      -55.237373
 H         -59.266914     -155.859268      -51.280697
 H         -60.146965     -155.429153      -53.350876
 C         -58.266857     -155.522812      -51.476887
 C         -57.564182     -154.578476      -50.573723
 C         -57.557861     -156.345108      -52.414829
 C         -56.328197     -155.368820      -49.960320
 C         -56.414051     -157.047745      -51.831459
 C         -55.535172     -156.082504      -51.022060
 H         -58.144352     -154.267456      -49.705578
 H         -57.393688     -153.600143      -50.985661
 H         -58.145908     -157.144730      -52.971832
 H         -57.312790     -155.541275      -53.233906
 H         -56.585560     -156.226486      -49.233452
 H         -55.670544     -154.544128      -49.591228
 H         -55.880413     -157.474991      -52.663071
 H         -56.730591     -157.784363      -51.084160
 H         -54.740505     -156.774628      -50.519341
 H         -55.009819     -155.481369      -51.692612
