20
 generated by VMD
 C         -67.586494     -179.726181      -58.500160
 N         -68.232040     -179.829575      -59.480976
 H         -67.418846     -176.698273      -60.024208
 H         -66.940811     -179.669464      -57.666599
 C         -66.357025     -176.472107      -60.181103
 C         -66.115707     -175.720123      -61.438290
 C         -65.346802     -176.978775      -59.293201
 C         -64.961983     -174.760468      -61.226803
 C         -64.060555     -175.981171      -59.130753
 C         -63.713894     -175.295212      -60.485172
 H         -67.122757     -175.224243      -61.573902
 H         -65.853638     -176.354660      -62.252026
 H         -65.745514     -176.926834      -58.233528
 H         -64.917625     -177.960831      -59.469223
 H         -65.348091     -173.885864      -60.677505
 H         -64.711174     -174.325058      -62.276924
 H         -63.129467     -176.447205      -58.794502
 H         -64.250458     -175.277298      -58.277500
 H         -62.921131     -174.509186      -60.240723
 H         -63.411385     -176.101715      -61.140846
