20
 generated by VMD
 C          -1.283236       -9.688458        1.187017
 N          -1.853868       -9.816238        0.200714
 H          -3.060268      -12.166722        1.360268
 H          -3.799365      -11.990972        2.916158
 C          -3.701042      -12.681607        2.060505
 C          -3.003554      -13.948849        2.472404
 C          -5.043811      -12.983547        1.404496
 C          -4.004132      -14.907736        3.287404
 C          -5.948120      -13.801286        2.239255
 C          -5.310320      -15.091948        2.526627
 H          -2.136943      -13.771057        3.116578
 H          -2.756236      -14.543717        1.631772
 H          -5.593764      -11.999353        1.182750
 H          -4.846505      -13.519506        0.428466
 H          -4.125277      -14.479228        4.257637
 H          -3.405268      -15.832628        3.406115
 H          -6.894376      -14.001779        1.714380
 H          -6.161538      -13.277966        3.157419
 H          -6.033329      -15.793906        2.990521
 H          -5.057247      -15.580177        1.521996
