20
 generated by VMD
 C         -28.530806      -86.797325      -26.891445
 N         -27.536894      -87.141846      -26.380213
 H         -31.008274      -88.536293      -25.346451
 H         -29.357948      -86.558052      -27.487026
 C         -31.991873      -88.110809      -25.599735
 C         -33.184311      -88.118500      -24.663553
 C         -32.239899      -88.014786      -27.094200
 C         -34.512924      -87.687424      -25.304770
 C         -33.527699      -87.394112      -27.575699
 C         -34.686577      -87.994415      -26.804247
 H         -33.019375      -87.440247      -23.827267
 H         -33.137074      -89.115906      -24.328173
 H         -31.400572      -87.474503      -27.510548
 H         -32.078079      -89.028358      -27.490036
 H         -34.671848      -86.583427      -25.040607
 H         -35.236702      -88.292427      -24.736126
 H         -33.780495      -87.613396      -28.630650
 H         -33.436028      -86.304871      -27.563416
 H         -35.642849      -87.594177      -27.035368
 H         -34.780106      -88.991005      -26.859194
