20
 generated by VMD
 C         -58.412853     -160.033783      -57.004192
 N         -58.609127     -159.880295      -58.199406
 H         -58.658566     -162.917557      -54.838123
 H         -58.350220     -160.156738      -55.901760
 C         -59.511509     -162.926804      -54.159031
 C         -59.339294     -163.038254      -52.731098
 C         -60.905983     -162.870987      -54.686119
 C         -60.292515     -162.016846      -52.034756
 C         -62.087288     -162.198013      -53.846760
 C         -61.764881     -162.293716      -52.341873
 H         -58.275169     -162.880081      -52.395390
 H         -59.420994     -164.117371      -52.322079
 H         -60.872879     -162.525604      -55.673172
 H         -61.233078     -163.959747      -54.678661
 H         -60.016365     -160.986694      -52.375134
 H         -60.137817     -162.133820      -51.004612
 H         -63.051105     -162.593582      -54.069321
 H         -62.138962     -161.129013      -54.052879
 H         -62.309982     -161.504272      -51.849983
 H         -62.219517     -163.189514      -51.864300
