20
 generated by VMD
 C         -13.299223      -44.851849       -6.251586
 N         -14.242368      -44.313732       -6.038301
 H         -14.974745      -44.601677       -8.988516
 H         -14.352132      -43.986027      -10.512841
 C         -15.211504      -44.374424      -10.034933
 C         -16.398954      -43.445782      -10.114477
 C         -15.708961      -45.610847      -10.743155
 C         -17.017662      -43.016895      -11.479159
 C         -16.120649      -45.250362      -12.172222
 C         -17.307882      -44.329346      -12.238879
 H         -16.073391      -42.498840       -9.606371
 H         -17.219988      -43.910042       -9.534363
 H         -14.870847      -46.289356      -10.758714
 H         -16.522886      -46.078487      -10.238835
 H         -16.298330      -42.412880      -12.066432
 H         -17.925819      -42.428101      -11.355591
 H         -16.431347      -46.179428      -12.738977
 H         -15.229671      -44.835560      -12.657046
 H         -17.588503      -44.195778      -13.283816
 H         -18.193487      -44.721161      -11.828214
