20
 generated by VMD
 C         -58.554298     -161.745132      -56.429504
 N         -58.040157     -160.764755      -56.095943
 H         -59.472702     -164.939102      -55.499107
 H         -59.046478     -162.681717      -56.640423
 C         -60.207279     -164.337234      -54.855141
 C         -59.901234     -163.629257      -53.514137
 C         -61.710068     -164.371078      -55.181156
 C         -60.518108     -162.253555      -53.366524
 C         -62.548176     -163.175278      -54.759998
 C         -62.174866     -162.460876      -53.441341
 H         -58.827579     -163.562180      -53.240288
 H         -60.238533     -164.326981      -52.783527
 H         -61.895218     -164.524918      -56.311329
 H         -62.067684     -165.182343      -54.559574
 H         -60.234650     -161.634521      -54.144333
 H         -60.463600     -161.844376      -52.386204
 H         -63.694710     -163.381042      -54.878250
 H         -62.590698     -162.455551      -55.572998
 H         -62.653458     -161.459488      -53.534527
 H         -62.564350     -163.022583      -52.618797
