20
 generated by VMD
 C         -79.424568     -204.886551      -70.894608
 N         -80.515442     -205.345901      -70.817833
 H         -76.867531     -203.285919      -69.092049
 H         -78.412323     -204.568939      -70.696632
 C         -75.858414     -203.175552      -69.444275
 C         -75.543808     -201.861679      -70.149452
 C         -74.860847     -204.190903      -69.165581
 C         -74.000656     -201.705124      -70.475555
 C         -73.584526     -203.530640      -68.938011
 C         -73.208702     -202.979919      -70.332916
 H         -75.880989     -200.912155      -69.687019
 H         -76.069862     -201.859589      -71.075165
 H         -75.199318     -204.866806      -68.312561
 H         -74.949318     -204.987946      -70.025513
 H         -73.669701     -200.970474      -69.742485
 H         -73.800728     -201.221664      -71.408577
 H         -72.751816     -204.105118      -68.469788
 H         -73.782181     -202.681274      -68.065132
 H         -72.101845     -202.672684      -70.510635
 H         -73.371010     -203.772232      -71.188385
