20
 generated by VMD
 C         -51.152916     -130.787231      -46.201405
 N         -50.382584     -130.271301      -46.969921
 H         -47.862652     -132.072525      -44.369564
 H         -52.150249     -131.211349      -45.949566
 C         -48.038921     -132.389481      -43.346283
 C         -48.615028     -133.720383      -42.972569
 C         -48.128109     -131.258453      -42.438641
 C         -48.240551     -134.079010      -41.544556
 C         -47.867130     -131.654068      -40.933308
 C         -48.659050     -132.926712      -40.598850
 H         -48.160748     -134.506668      -43.717300
 H         -49.657146     -133.668365      -43.019993
 H         -47.322666     -130.696381      -42.768227
 H         -49.146042     -130.811218      -42.629475
 H         -47.179180     -134.321228      -41.475525
 H         -48.813408     -135.009048      -41.392479
 H         -48.096886     -130.793991      -40.237488
 H         -46.800209     -131.776184      -40.769615
 H         -48.385788     -133.149109      -39.605301
 H         -49.795803     -132.701660      -40.719006
