20
 generated by VMD
 C         -59.429886     -158.391327      -57.458504
 N         -58.461792     -158.385345      -58.004501
 H         -59.838001     -158.745361      -54.057270
 H         -60.305447     -158.379700      -56.882687
 C         -59.822094     -159.576782      -53.363609
 C         -58.654572     -159.520264      -52.383434
 C         -60.686813     -160.768784      -53.445309
 C         -58.533470     -160.547302      -51.244171
 C         -60.677063     -161.522064      -52.068520
 C         -59.284096     -161.819092      -51.499836
 H         -58.578236     -158.598892      -51.823265
 H         -57.765900     -159.705627      -53.024796
 H         -61.774746     -160.456345      -53.541344
 H         -60.442802     -161.234238      -54.371342
 H         -58.795998     -160.080551      -50.306564
 H         -57.373592     -160.607758      -50.993244
 H         -61.171036     -162.435974      -52.386024
 H         -61.250977     -160.981110      -51.248104
 H         -59.180824     -162.582047      -50.728863
 H         -58.809929     -162.435745      -52.353840
