20
 generated by VMD
 C          -7.209253      -23.460926        1.734067
 N          -7.410151      -22.486847        2.270882
 H          -8.845583      -23.484692       -1.361107
 H          -9.325231      -22.299046       -2.550611
 C          -8.479280      -22.774590       -2.103328
 C          -7.566756      -23.483599       -3.064626
 C          -7.776960      -21.626291       -1.359924
 C          -6.991142      -22.603533       -4.114693
 C          -7.176653      -20.668470       -2.345325
 C          -6.232582      -21.449528       -3.389784
 H          -8.234247      -24.206219       -3.631124
 H          -6.760055      -23.956573       -2.476778
 H          -8.478811      -21.103470       -0.622088
 H          -6.979447      -21.993414       -0.688645
 H          -7.641930      -22.269609       -4.870928
 H          -6.273342      -23.191027       -4.654776
 H          -6.543323      -19.920149       -1.806913
 H          -7.907116      -19.994535       -2.845570
 H          -5.913195      -20.741455       -4.189054
 H          -5.271595      -21.798429       -2.917757
