20
 generated by VMD
 C         -44.834641     -122.411186      -35.679260
 N         -44.917870     -123.214165      -34.834404
 H         -44.963768     -122.620018      -38.788681
 H         -44.564457     -121.603683      -36.389091
 C         -44.918247     -121.744965      -39.392021
 C         -43.435284     -121.409859      -39.628151
 C         -46.064823     -120.820801      -39.717270
 C         -43.321968     -120.359962      -40.701199
 C         -45.779861     -119.634529      -40.585613
 C         -44.343300     -119.168945      -40.473614
 H         -43.021240     -122.353554      -40.056877
 H         -43.011688     -121.157829      -38.692909
 H         -46.976948     -121.189827      -40.190620
 H         -46.392441     -120.461494      -38.705513
 H         -43.410057     -120.674561      -41.763718
 H         -42.237667     -120.017311      -40.735451
 H         -46.477516     -118.775368      -40.639603
 H         -45.818550     -119.958633      -41.735073
 H         -44.128662     -118.362625      -41.139835
 H         -44.140430     -118.794044      -39.473579
