20
 generated by VMD
 C          -3.401834      -19.776581        3.462948
 N          -3.830232      -18.813244        3.089153
 H          -5.367066      -19.947826       -0.014963
 H          -6.206130      -21.234217       -0.987683
 C          -6.113595      -20.161526       -0.777059
 C          -5.635028      -19.445684       -2.108511
 C          -7.514555      -19.693924       -0.261265
 C          -6.793968      -19.499218       -3.158022
 C          -8.541204      -19.539347       -1.375975
 C          -8.028743      -18.814775       -2.589499
 H          -4.745914      -19.982067       -2.572694
 H          -5.302471      -18.476728       -1.870741
 H          -7.875793      -20.281309        0.625890
 H          -7.352572      -18.656866        0.211440
 H          -7.062051      -20.591438       -3.405166
 H          -6.409102      -19.000797       -4.097224
 H          -9.431481      -19.046247       -0.900104
 H          -8.866041      -20.556631       -1.653504
 H          -8.792953      -18.818943       -3.355342
 H          -7.833771      -17.762312       -2.382085
