20
 generated by VMD
 C         -50.575230     -129.419006      -43.132725
 N         -50.387196     -128.286087      -43.027931
 H         -48.542866     -128.007217      -40.147259
 H         -50.512791     -130.439072      -43.462013
 C         -47.513412     -127.826653      -40.466194
 C         -46.425747     -128.709106      -39.873821
 C         -47.182777     -126.442131      -40.927982
 C         -45.371506     -128.885117      -40.987305
 C         -46.208385     -126.624146      -42.069111
 C         -45.017361     -127.496956      -41.654648
 H         -46.745075     -129.692719      -39.700268
 H         -46.043255     -128.228821      -38.920414
 H         -48.144363     -126.030800      -41.230347
 H         -46.627750     -125.924599      -40.042580
 H         -45.523659     -129.726517      -41.722797
 H         -44.444599     -129.337631      -40.552860
 H         -45.797245     -125.632812      -42.474831
 H         -46.735302     -127.011253      -43.011475
 H         -44.380081     -127.505119      -42.590130
 H         -44.468609     -126.944962      -40.882557
