20
 generated by VMD
 C         -40.316463     -100.218071      -30.072115
 N         -41.197117     -100.496208      -30.760599
 H         -37.277504     -101.746170      -30.382267
 H         -39.587643      -99.956444      -29.363792
 C         -36.494225     -101.094437      -30.824432
 C         -36.275829     -100.484421      -32.297462
 C         -35.322910     -100.922844      -29.970270
 C         -35.683933      -99.143967      -32.359722
 C         -34.766277      -99.518608      -30.156885
 C         -34.475872      -99.179688      -31.539631
 H         -37.215649     -100.571472      -32.833744
 H         -35.574238     -101.215172      -32.743755
 H         -35.774700     -101.060982      -29.002350
 H         -34.628189     -101.811256      -30.112394
 H         -36.429844      -98.384247      -31.980825
 H         -35.546825      -98.961777      -33.394020
 H         -33.818062      -99.454704      -29.665199
 H         -35.317539      -98.680168      -29.630539
 H         -33.795715      -98.269989      -31.612865
 H         -33.808689      -99.877953      -32.067158
