20
 generated by VMD
 C         -57.906246     -150.630722      -48.654903
 N         -58.072262     -151.793777      -48.594143
 H         -55.089615     -149.461319      -47.516655
 H         -57.535725     -149.568619      -48.624508
 C         -54.956322     -149.110443      -48.573727
 C         -54.011406     -150.033020      -49.361698
 C         -54.858547     -147.584137      -48.759842
 C         -54.204937     -149.787125      -50.920689
 C         -54.972469     -147.343277      -50.326145
 C         -54.121490     -148.179382      -51.253887
 H         -54.103710     -151.135712      -49.163139
 H         -53.036079     -149.639145      -49.017494
 H         -55.736637     -147.250412      -48.285950
 H         -53.911133     -147.145111      -48.331135
 H         -55.257996     -150.014908      -51.158085
 H         -53.508266     -150.411469      -51.562565
 H         -54.759228     -146.293259      -50.459194
 H         -56.092098     -147.557205      -50.556744
 H         -54.245373     -147.849030      -52.297256
 H         -53.075214     -147.872955      -50.943840
