20
 generated by VMD
 C         -18.231831      -48.660160       -7.236440
 N         -18.917065      -49.450649       -6.877443
 H         -16.194674      -47.818386      -10.077620
 H         -16.353798      -49.047348      -11.210877
 C         -16.363409      -47.932419      -11.153271
 C         -15.203558      -47.406387      -11.963029
 C         -17.626158      -47.351112      -11.644496
 C         -15.349372      -47.314579      -13.509073
 C         -17.785370      -47.678364      -13.117920
 C         -16.756939      -46.853176      -13.885827
 H         -14.452569      -48.127686      -11.714771
 H         -14.801799      -46.442009      -11.600921
 H         -18.449356      -47.760674      -11.052864
 H         -17.599957      -46.276760      -11.536259
 H         -15.300128      -48.319309      -13.941213
 H         -14.568134      -46.619572      -13.880470
 H         -18.736706      -47.557877      -13.575033
 H         -17.599649      -48.722481      -13.280893
 H         -16.924053      -46.911324      -14.982083
 H         -16.835995      -45.779964      -13.608847
