20
 generated by VMD
 C         -13.125315      -28.650875       -5.693792
 N         -12.708616      -27.649118       -5.399886
 H         -11.269441      -31.066662       -3.350594
 H         -11.091446      -29.467087       -4.300684
 C         -10.617258      -30.301451       -3.744030
 C          -9.763238      -31.094881       -4.783029
 C          -9.760633      -29.826429       -2.554842
 C          -8.720329      -30.139500       -5.296855
 C          -8.653712      -28.856834       -3.201334
 C          -7.813989      -29.580269       -4.213701
 H         -10.339561      -31.297907       -5.710282
 H          -9.421995      -31.968571       -4.263613
 H         -10.363341      -29.223124       -1.883966
 H          -9.247285      -30.618971       -1.945419
 H          -9.196032      -29.282034       -5.759717
 H          -8.125590      -30.734045       -5.964417
 H          -7.980825      -28.505764       -2.399356
 H          -9.183748      -27.993837       -3.678669
 H          -7.091107      -28.928926       -4.683618
 H          -7.233911      -30.435911       -3.762526
