20
 generated by VMD
 C         -20.173004      -56.721851      -16.899378
 N         -20.972658      -56.445065      -16.134657
 H         -22.382286      -59.800961      -17.726116
 H         -19.688890      -56.969482      -17.714750
 C         -22.150574      -60.175854      -16.794102
 C         -22.685982      -59.567356      -15.520882
 C         -21.874144      -61.658241      -16.700243
 C         -21.874479      -59.818733      -14.236908
 C         -20.920164      -61.942562      -15.607450
 C         -21.351460      -61.321239      -14.210446
 H         -23.634121      -60.049496      -15.402401
 H         -22.875761      -58.567154      -15.643137
 H         -22.870584      -62.099998      -16.393314
 H         -21.623154      -62.262783      -17.589188
 H         -22.531679      -59.566223      -13.319514
 H         -20.949947      -59.191723      -14.265393
 H         -20.027073      -61.354240      -15.758054
 H         -20.684231      -63.019596      -15.565548
 H         -22.199018      -61.992065      -13.904214
 H         -20.610361      -61.540730      -13.443555
