20
 generated by VMD
 C         -67.916893     -185.824295      -67.382431
 N         -68.721390     -186.581970      -67.665855
 H         -68.673309     -187.366074      -64.704834
 H         -67.144684     -185.085052      -67.166252
 C         -69.262276     -187.599792      -63.873093
 C         -68.787888     -187.040497      -62.644333
 C         -70.711983     -188.010269      -64.065552
 C         -69.593895     -187.137909      -61.411785
 C         -71.387779     -188.384705      -62.744678
 C         -71.170815     -187.327606      -61.701210
 H         -68.483879     -186.012207      -62.856506
 H         -67.810387     -187.551620      -62.638512
 H         -71.352600     -187.271378      -64.541374
 H         -70.804695     -188.780365      -64.768974
 H         -69.570084     -186.239990      -60.763130
 H         -69.263542     -187.957962      -60.844219
 H         -70.935081     -189.385437      -62.441505
 H         -72.458878     -188.697891      -62.921467
 H         -71.581787     -186.328033      -61.849735
 H         -71.773041     -187.592255      -60.746502
