20
 generated by VMD
 C         -21.729975      -52.322693      -11.414761
 N         -21.693760      -52.901711      -10.385647
 H         -20.035597      -51.361443      -13.794625
 H         -21.988857      -51.805813      -12.563161
 C         -18.928019      -51.611408      -13.667572
 C         -17.977146      -51.838684      -14.809145
 C         -18.532326      -51.427059      -12.251428
 C         -16.458071      -51.948486      -14.505026
 C         -17.026716      -51.121216      -12.211519
 C         -16.308712      -52.204094      -12.969726
 H         -18.052309      -50.908489      -15.400983
 H         -18.306854      -52.675625      -15.413208
 H         -19.157072      -50.664284      -11.826787
 H         -18.644464      -52.375313      -11.673157
 H         -15.950007      -50.977268      -14.767534
 H         -16.029165      -52.706516      -15.180495
 H         -16.641155      -51.084808      -11.125218
 H         -16.832689      -50.147747      -12.647456
 H         -15.238510      -52.202259      -12.607310
 H         -16.639935      -53.251209      -12.719389
