20
 generated by VMD
 C         -49.485310     -127.109085      -40.136841
 N         -49.627865     -126.961205      -38.980572
 H         -46.620094     -127.081841      -42.474155
 H         -49.301632     -127.199928      -41.211411
 C         -46.372707     -126.307060      -41.646492
 C         -45.264954     -126.646233      -40.621490
 C         -46.761486     -124.880386      -41.600094
 C         -44.043537     -125.645958      -40.535927
 C         -45.573143     -123.806023      -41.462898
 C         -44.660309     -124.314728      -40.268280
 H         -44.917503     -127.653954      -40.950146
 H         -45.667171     -126.656479      -39.653858
 H         -47.331024     -124.629097      -42.493298
 H         -47.296337     -124.624496      -40.553917
 H         -43.357887     -125.687279      -41.448219
 H         -43.482456     -126.003380      -39.627693
 H         -45.933308     -122.833969      -41.114288
 H         -44.881248     -123.683701      -42.307549
 H         -43.870785     -123.642090      -40.066872
 H         -45.239769     -124.255524      -39.302574
