20
 generated by VMD
 C         -50.313553     -130.872589      -45.583065
 N         -50.689087     -129.871872      -46.154846
 H         -47.408813     -132.359131      -44.381054
 H         -50.350651     -131.934555      -45.403095
 C         -48.101799     -132.319519      -43.530968
 C         -48.533077     -133.588181      -42.868851
 C         -48.341187     -130.994629      -42.719479
 C         -48.037701     -133.687088      -41.440300
 C         -47.921787     -131.145447      -41.299286
 C         -48.358604     -132.436981      -40.645641
 H         -48.246620     -134.486298      -43.373631
 H         -49.684956     -133.618286      -42.758610
 H         -47.843483     -130.166962      -43.282738
 H         -49.467648     -130.719925      -42.750591
 H         -46.973656     -134.030014      -41.337143
 H         -48.652370     -134.524185      -40.989998
 H         -48.250011     -130.438461      -40.567112
 H         -46.871872     -131.052414      -41.172207
 H         -47.831688     -132.289383      -39.661064
 H         -49.476498     -132.415985      -40.603951
