20
 generated by VMD
 C         -68.749649     -185.844360      -66.140656
 N         -68.701691     -186.119217      -67.259712
 H         -69.577065     -182.971344      -63.542149
 H         -68.750992     -185.499802      -65.068848
 C         -69.309303     -183.760559      -62.766933
 C         -70.377754     -184.801453      -62.702988
 C         -67.987831     -183.867188      -62.099373
 C         -70.004799     -185.716324      -61.493328
 C         -67.720856     -185.070831      -61.253754
 C         -68.604309     -186.262314      -61.554577
 H         -70.457695     -185.398605      -63.665306
 H         -71.427452     -184.453506      -62.570087
 H         -67.228676     -183.576050      -62.853817
 H         -67.929642     -182.994827      -61.465076
 H         -70.623001     -186.663513      -61.520313
 H         -70.181725     -185.267853      -60.479870
 H         -67.846794     -184.794632      -60.170631
 H         -66.697639     -185.458572      -61.440186
 H         -68.482697     -186.681458      -62.642586
 H         -68.471214     -187.125473      -60.928963
