20
 generated by VMD
 C         -67.954422     -178.365112      -57.971024
 N         -66.962967     -178.519470      -57.379585
 H         -65.274300     -176.659882      -59.516491
 H         -68.865631     -178.304993      -58.554489
 C         -64.925964     -175.623260      -59.446350
 C         -65.894646     -174.600998      -59.927505
 C         -63.485081     -175.529449      -60.035233
 C         -65.363510     -173.198105      -59.810352
 C         -63.039165     -173.939880      -59.889317
 C         -64.118011     -173.032730      -60.578438
 H         -66.898079     -174.701569      -59.343014
 H         -66.181328     -174.849518      -60.921837
 H         -62.707512     -176.056854      -59.464973
 H         -63.423206     -175.651550      -61.085632
 H         -65.320099     -173.001038      -58.679466
 H         -66.200760     -172.450516      -60.065044
 H         -62.083591     -173.805298      -60.341694
 H         -62.760769     -173.779022      -58.776363
 H         -63.807674     -171.940277      -60.613102
 H         -64.028442     -173.448624      -61.559044
