20
 generated by VMD
 C         -12.486526      -27.630114       -4.640241
 N         -13.141739      -27.994446       -5.447583
 H         -10.952857      -30.551407       -2.916725
 H         -10.944478      -29.122448       -3.834153
 C         -10.262948      -29.939894       -3.406375
 C          -9.535466      -30.597084       -4.555469
 C          -9.324650      -29.260847       -2.446671
 C          -8.755023      -29.579199       -5.268952
 C          -8.383977      -28.308323       -3.166472
 C          -7.788235      -28.950026       -4.399473
 H         -10.260892      -31.084602       -5.183975
 H          -8.871162      -31.383650       -4.236269
 H          -9.887580      -28.733877       -1.616244
 H          -8.691647      -30.057125       -2.038924
 H          -9.327590      -28.834482       -5.756494
 H          -8.241928      -30.029482       -6.118998
 H          -7.611270      -27.980978       -2.427927
 H          -8.985598      -27.431793       -3.463724
 H          -7.157702      -28.255312       -5.025506
 H          -6.993360      -29.672564       -4.100845
