20
 generated by VMD
 C         -41.327465     -102.344910      -35.478889
 N         -41.554531     -103.406960      -35.906166
 H         -39.129704     -104.907104      -33.904137
 H         -41.480240     -101.405869      -35.054825
 C         -38.632618     -105.123253      -32.870441
 C         -37.326679     -104.400414      -32.851109
 C         -38.909107     -106.271904      -31.993101
 C         -36.441162     -104.669975      -31.612745
 C         -37.985416     -106.430191      -30.735632
 C         -36.563503     -106.104630      -31.074932
 H         -37.461842     -103.303230      -32.998756
 H         -36.663113     -104.728546      -33.646088
 H         -39.940769     -106.162872      -31.514210
 H         -38.863369     -107.194435      -32.464058
 H         -36.805653     -103.982323      -30.874908
 H         -35.385811     -104.435234      -31.757639
 H         -38.083206     -107.544182      -30.426958
 H         -38.402996     -105.815201      -29.901070
 H         -35.892189     -106.198883      -30.264048
 H         -36.239677     -106.763496      -31.919098
