20
 generated by VMD
 C         -38.340786     -112.699066      -35.954624
 N         -37.617767     -112.196968      -36.696651
 H         -41.115547     -114.880531      -34.921768
 H         -38.798595     -113.386429      -35.240585
 C         -42.018932     -114.561462      -35.431190
 C         -42.036961     -114.502815      -36.925262
 C         -43.087349     -113.819687      -34.735146
 C         -43.392372     -114.855637      -37.435925
 C         -44.418961     -113.993813      -35.292557
 C         -44.412098     -113.889290      -36.879646
 H         -41.196056     -115.174377      -37.168240
 H         -41.637794     -113.436691      -37.142975
 H         -43.063179     -113.888809      -33.656872
 H         -42.904900     -112.713615      -34.844276
 H         -43.817059     -115.862892      -37.281364
 H         -43.405624     -114.640999      -38.527523
 H         -44.944466     -113.084938      -34.914078
 H         -45.062611     -114.832474      -35.023712
 H         -45.450123     -114.182655      -37.332386
 H         -44.096916     -112.898048      -37.224422
