20
 generated by VMD
 C         -22.022150      -55.298000      -17.512064
 N         -21.550932      -55.797527      -18.483248
 H         -21.368153      -56.704266      -13.861318
 H         -22.109871      -55.223450      -16.299948
 C         -21.116823      -57.789364      -14.126044
 C         -21.251371      -58.735123      -12.938393
 C         -20.800961      -58.200588      -15.485155
 C         -20.883160      -60.183113      -13.272933
 C         -20.243351      -59.636475      -15.608744
 C         -19.804836      -60.193027      -14.276759
 H         -22.239538      -58.634277      -12.467031
 H         -20.461826      -58.313400      -12.208015
 H         -21.714779      -58.193207      -16.058008
 H         -20.129732      -57.438511      -15.837481
 H         -21.738903      -60.630032      -13.742903
 H         -20.543423      -60.733784      -12.376074
 H         -19.477819      -59.690865      -16.369089
 H         -21.108881      -60.274559      -15.825411
 H         -19.318916      -61.133636      -14.329949
 H         -19.035568      -59.474522      -13.926273
