20
 generated by VMD
 C         -11.849512      -37.409130       -7.254657
 N         -11.149349      -37.872852       -8.024733
 H         -12.451335      -40.802135       -8.341161
 H         -13.588728      -40.053410       -7.299042
 C         -13.514180      -40.669979       -8.201534
 C         -14.139268      -42.009281       -8.002156
 C         -14.121027      -39.832760       -9.255156
 C         -15.706286      -41.947639       -7.905327
 C         -15.609943      -39.711338       -8.998552
 C         -16.313061      -41.039688       -8.889200
 H         -13.817605      -42.393658       -7.036977
 H         -13.861017      -42.693722       -8.828324
 H         -13.671086      -38.865376       -9.185647
 H         -13.876861      -40.297932      -10.239523
 H         -15.918172      -41.572834       -6.884104
 H         -16.134724      -42.940361       -8.044516
 H         -16.071632      -39.159470       -9.852348
 H         -15.674970      -39.103642       -8.112805
 H         -17.342518      -40.943562       -8.635756
 H         -16.244534      -41.540482       -9.855562
