20
 generated by VMD
 C         -30.123299      -92.745064      -25.294724
 N         -30.824417      -93.525963      -25.830835
 H         -32.980957      -91.742020      -26.614824
 H         -29.570444      -91.903809      -24.720152
 C         -33.637043      -91.278786      -27.310699
 C         -34.880093      -92.100471      -27.408417
 C         -33.234909      -90.521790      -28.490307
 C         -35.883595      -91.674881      -28.525625
 C         -34.309727      -90.053375      -29.466373
 C         -35.333088      -91.063309      -29.784164
 H         -35.621307      -92.050659      -26.445211
 H         -34.685173      -93.195877      -27.560923
 H         -32.516895      -89.703941      -28.211708
 H         -32.623596      -91.222931      -29.050095
 H         -36.473244      -90.894203      -28.037952
 H         -36.600212      -92.507423      -28.708076
 H         -33.821255      -89.613647      -30.366318
 H         -34.901669      -89.251274      -28.930920
 H         -36.250107      -90.630737      -30.264324
 H         -34.935879      -91.871452      -30.422770
