20
 generated by VMD
 C         -70.574493     -182.058273      -63.833061
 N         -69.577881     -182.602295      -63.962566
 H         -68.888573     -180.535507      -61.410530
 H         -71.545700     -181.573837      -63.792706
 C         -67.819313     -180.633484      -61.235947
 C         -67.174950     -181.898788      -61.041927
 C         -67.349472     -179.335129      -60.676083
 C         -65.597473     -181.877304      -60.879982
 C         -65.762878     -179.255142      -60.836475
 C         -65.183319     -180.601425      -60.207314
 H         -67.421745     -182.633667      -61.839283
 H         -67.671707     -182.370590      -60.075615
 H         -67.796120     -178.346634      -60.964855
 H         -67.646790     -179.451202      -59.604317
 H         -65.127724     -181.909027      -61.871010
 H         -65.334862     -182.730087      -60.293804
 H         -65.266167     -178.481659      -60.241241
 H         -65.498322     -179.236694      -61.904335
 H         -64.118851     -180.688095      -60.043919
 H         -65.679657     -180.548721      -59.209358
