20
 generated by VMD
 C         -39.969128     -105.280136      -37.168949
 N         -39.893230     -104.140274      -36.997105
 H         -39.996185     -107.953545      -35.022430
 H         -39.942024     -106.345230      -37.176140
 C         -39.697617     -108.669868      -34.256523
 C         -38.403728     -108.076080      -33.541492
 C         -40.412811     -109.867638      -33.790596
 C         -38.814056     -107.854599      -32.118591
 C         -40.796684     -109.508064      -32.322422
 C         -39.594913     -109.124313      -31.400036
 H         -38.075745     -107.239998      -34.012497
 H         -37.602608     -108.764038      -33.548035
 H         -41.243935     -109.916008      -34.481052
 H         -39.804993     -110.842369      -33.891056
 H         -39.384041     -106.850853      -32.021820
 H         -37.914825     -107.683678      -31.482031
 H         -41.113194     -110.414757      -31.829350
 H         -41.537941     -108.766457      -32.285912
 H         -39.923447     -108.769226      -30.469179
 H         -38.879318     -109.951889      -31.262800
