20
 generated by VMD
 C          -3.773829      -17.992468        1.940609
 N          -3.117659      -18.421946        2.733249
 H          -5.695473      -20.567461        0.519094
 H          -6.084586      -21.186985       -1.173154
 C          -6.178824      -20.336552       -0.436767
 C          -5.472199      -19.129122       -1.129141
 C          -7.632198      -19.987270       -0.091763
 C          -6.245779      -18.509018       -2.334976
 C          -8.363195      -19.406836       -1.333639
 C          -7.765928      -18.142311       -1.937139
 H          -4.416017      -19.442810       -1.400614
 H          -5.416086      -18.272148       -0.461661
 H          -8.220905      -20.903151        0.164892
 H          -7.690652      -19.343107        0.795771
 H          -6.256087      -19.250259       -3.171575
 H          -5.775515      -17.589586       -2.610690
 H          -9.330234      -19.111900       -0.950207
 H          -8.522489      -20.215099       -2.026090
 H          -8.325397      -17.761189       -2.818077
 H          -7.738240      -17.288082       -1.242020
