20
 generated by VMD
 C         -57.963696     -150.626572      -48.728203
 N         -57.987274     -151.795059      -48.627781
 H         -55.034115     -149.449661      -47.601212
 H         -57.729675     -149.542938      -48.818947
 C         -55.048061     -149.223907      -48.654266
 C         -54.262722     -150.291641      -49.456860
 C         -55.043816     -147.745911      -48.870159
 C         -54.189312     -149.859955      -50.982479
 C         -55.054951     -147.450348      -50.357716
 C         -53.876312     -148.254425      -51.050694
 H         -54.802635     -151.269165      -49.344456
 H         -53.143158     -150.356766      -49.025337
 H         -55.954720     -147.335205      -48.369366
 H         -54.087948     -147.407440      -48.482235
 H         -55.058460     -150.159241      -51.578880
 H         -53.251068     -150.283096      -51.399654
 H         -55.108318     -146.399811      -50.590107
 H         -56.090076     -147.727676      -50.635193
 H         -53.727959     -147.937088      -52.189339
 H         -52.873260     -148.033279      -50.622406
