20
 generated by VMD
 C         -58.366463     -159.021057      -58.044304
 N         -59.237576     -159.086639      -57.237564
 H         -58.951954     -160.425720      -54.835983
 H         -57.604641     -158.914062      -58.788086
 C         -59.471310     -160.724319      -53.920204
 C         -58.573441     -161.046738      -52.729702
 C         -60.676407     -161.718292      -54.109894
 C         -59.404598     -161.250397      -51.491680
 C         -61.477261     -161.784805      -52.772629
 C         -60.657768     -162.152817      -51.500271
 H         -57.827740     -160.277618      -52.602352
 H         -58.177444     -162.064514      -52.989487
 H         -61.479492     -161.385239      -54.893654
 H         -60.292007     -162.692978      -54.410351
 H         -59.672100     -160.196732      -51.051552
 H         -58.691822     -161.402405      -50.706120
 H         -62.260971     -162.561920      -52.915279
 H         -62.049023     -160.814774      -52.574726
 H         -61.284599     -162.131210      -50.479240
 H         -60.300529     -163.242783      -51.522869
