20
 generated by VMD
 C         -25.809637      -71.221756      -17.038811
 N         -25.808424      -71.875610      -16.093311
 H         -24.008368      -68.780403      -18.688419
 H         -25.836233      -70.538956      -17.970745
 C         -24.551889      -69.234177      -19.549404
 C         -23.908129      -70.192680      -20.509623
 C         -25.747938      -68.613380      -20.112312
 C         -24.966450      -71.002213      -21.282486
 C         -26.815357      -69.420586      -20.857576
 C         -26.090183      -70.243958      -21.893152
 H         -23.360748      -70.821022      -19.811455
 H         -23.281298      -69.558266      -21.205553
 H         -26.250090      -68.053314      -19.365742
 H         -25.532261      -67.745064      -20.797159
 H         -25.461926      -71.742744      -20.581701
 H         -24.494623      -71.512199      -22.091181
 H         -27.646685      -68.813713      -21.285919
 H         -27.405235      -69.982765      -20.136364
 H         -26.706585      -71.061195      -22.402912
 H         -25.757696      -69.695427      -22.836411
