20
 generated by VMD
 C          -1.839182       -8.656662       -0.381252
 N          -2.190615       -7.923378        0.347777
 H          -3.246679       -9.320111        2.637690
 H          -1.865566      -10.516196        2.716380
 C          -2.936365      -10.335402        2.933271
 C          -3.715168      -11.419550        2.180304
 C          -3.251420      -10.498830        4.424582
 C          -3.438170      -12.877075        2.641921
 C          -2.967176      -11.866141        4.941653
 C          -3.713123      -12.963164        4.171084
 H          -3.542223      -11.366796        1.083533
 H          -4.741182      -11.181554        2.411448
 H          -2.614985       -9.812752        4.888766
 H          -4.295767      -10.336575        4.617103
 H          -2.448909      -13.256095        2.297561
 H          -4.248418      -13.444091        2.095367
 H          -3.336929      -11.974334        5.954842
 H          -1.927470      -12.150598        4.960368
 H          -3.423783      -13.948842        4.586498
 H          -4.815522      -12.808037        4.335714
