20
 generated by VMD
 C         -28.063715      -73.104218      -18.295713
 N         -28.823122      -73.519165      -17.511486
 H         -25.131409      -71.633263      -18.685514
 H         -27.164072      -72.861420      -18.945148
 C         -25.374540      -71.815811      -19.775114
 C         -24.575663      -72.804619      -20.534307
 C         -25.865612      -70.638626      -20.526619
 C         -25.196217      -72.971588      -22.085001
 C         -26.462114      -70.850464      -21.816118
 C         -25.421120      -71.588486      -22.649311
 H         -24.462662      -73.751747      -19.998198
 H         -23.531481      -72.414162      -20.777773
 H         -26.618847      -70.148621      -19.926088
 H         -25.029968      -69.885208      -20.646614
 H         -26.160261      -73.489578      -21.970398
 H         -24.566772      -73.581718      -22.769991
 H         -26.640841      -69.880196      -22.352943
 H         -27.479588      -71.484879      -21.771837
 H         -25.857731      -71.659073      -23.698093
 H         -24.536829      -71.074654      -22.865103
