20
 generated by VMD
 C         -73.953812     -200.824463      -65.437675
 N         -72.842499     -201.124374      -65.320694
 H         -73.978767     -197.849808      -66.401352
 H         -74.989708     -200.806854      -65.727066
 C         -73.950516     -197.519135      -67.439224
 C         -74.447609     -196.142212      -67.559639
 C         -73.372551     -198.125778      -68.650436
 C         -73.554642     -195.347809      -68.462685
 C         -73.765335     -197.396912      -69.992821
 C         -73.605263     -195.880264      -69.946251
 H         -74.286865     -195.680328      -66.484406
 H         -75.414619     -196.015991      -67.942146
 H         -72.289566     -198.127258      -68.482262
 H         -73.874428     -199.103363      -68.783226
 H         -72.503296     -195.503845      -68.080414
 H         -73.711441     -194.279266      -68.340485
 H         -74.699303     -197.739868      -70.373428
 H         -73.031563     -197.734314      -70.755615
 H         -72.736580     -195.521957      -70.445557
 H         -74.490128     -195.210693      -70.367584
