20
 generated by VMD
 C          -5.845674      -21.194563        2.006028
 N          -6.254558      -22.029270        1.384130
 H          -5.131098      -18.770441       -1.023268
 H          -5.951268      -20.030798       -0.085708
 C          -5.850342      -19.570263       -1.045308
 C          -5.542846      -20.725813       -1.965866
 C          -7.166340      -18.870907       -1.389167
 C          -6.678597      -21.714546       -2.139192
 C          -8.268551      -19.869247       -1.568510
 C          -7.970654      -20.971203       -2.582261
 H          -4.663821      -21.177282       -1.582045
 H          -5.348025      -20.394602       -2.997022
 H          -7.492120      -18.064127       -0.675498
 H          -7.005493      -18.203394       -2.346901
 H          -6.919087      -22.249529       -1.244089
 H          -6.416123      -22.525686       -2.830288
 H          -9.214765      -19.365709       -1.879551
 H          -8.535356      -20.269821       -0.589518
 H          -8.836233      -21.632145       -2.668352
 H          -7.838630      -20.558237       -3.594808
