20
 generated by VMD
 C         -11.951936      -26.070452       -0.064714
 N         -12.908924      -26.234306       -0.638702
 H          -9.972289      -26.544121       -3.450195
 H          -9.318496      -25.642036       -4.787890
 C          -9.075548      -26.150375       -3.860771
 C          -8.059271      -27.269915       -4.119403
 C          -8.415677      -25.161564       -2.886949
 C          -6.774516      -26.756672       -4.701616
 C          -7.137275      -24.557598       -3.516025
 C          -6.145927      -25.689272       -3.762094
 H          -8.461422      -28.087318       -4.768726
 H          -7.969430      -27.828920       -3.176630
 H          -9.175548      -24.335554       -2.716641
 H          -8.159558      -25.541643       -1.929998
 H          -6.927938      -26.279245       -5.676971
 H          -6.088033      -27.532034       -4.999513
 H          -6.716535      -23.825880       -2.835523
 H          -7.369764      -24.014400       -4.446207
 H          -5.241876      -25.338509       -4.290613
 H          -5.772282      -26.210728       -2.872765
