20
 generated by VMD
 C         -29.479952      -89.850883      -25.265162
 N         -29.133499      -90.963821      -25.548021
 H         -32.157593      -91.578354      -27.520359
 H         -29.956711      -88.929970      -25.071045
 C         -33.045399      -90.926804      -27.578928
 C         -34.442856      -91.396973      -27.526384
 C         -32.830631      -89.706841      -28.303738
 C         -35.445423      -90.245979      -27.093714
 C         -33.921982      -88.618423      -28.074638
 C         -35.327282      -89.196823      -28.186447
 H         -34.444168      -92.261032      -26.883070
 H         -34.754608      -91.864273      -28.417582
 H         -31.973585      -89.136826      -28.077194
 H         -32.761082      -89.967346      -29.387417
 H         -35.114124      -89.815926      -26.117573
 H         -36.435600      -90.775764      -26.992510
 H         -33.793365      -87.708847      -28.694799
 H         -33.813808      -88.176567      -27.057146
 H         -36.169201      -88.424736      -28.278852
 H         -35.436333      -89.832870      -29.158125
