20
 generated by VMD
 C         -27.110630      -72.465660      -17.633053
 N         -27.764908      -73.339088      -17.212553
 H         -24.250439      -70.118103      -18.972599
 H         -26.327784      -71.833748      -17.988760
 C         -24.811201      -70.420639      -19.835157
 C         -24.282387      -71.724777      -20.362480
 C         -25.673866      -69.495903      -20.576370
 C         -25.286472      -72.270340      -21.320232
 C         -26.565413      -70.082237      -21.680170
 C         -25.845411      -71.277481      -22.303881
 H         -24.127941      -72.291946      -19.533257
 H         -23.342094      -71.524086      -20.831081
 H         -26.411041      -69.083618      -19.872555
 H         -25.113527      -68.641342      -20.849205
 H         -26.091339      -72.811348      -20.835108
 H         -24.723536      -73.053528      -21.902205
 H         -26.985168      -69.421585      -22.403513
 H         -27.499954      -70.408592      -21.256620
 H         -26.666275      -71.877754      -22.759356
 H         -25.034151      -71.116615      -23.071362
