20
 generated by VMD
 C          -3.365917      -19.672005        3.387619
 N          -3.728467      -18.656775        3.110546
 H          -5.368886      -20.292135       -0.016875
 H          -6.409846      -21.344969       -1.068544
 C          -6.185019      -20.316658       -0.778594
 C          -5.729826      -19.462627       -1.928866
 C          -7.418640      -19.661140       -0.310920
 C          -6.739257      -19.282656       -3.120210
 C          -8.501226      -19.519266       -1.371912
 C          -8.051188      -18.777428       -2.586078
 H          -4.760190      -19.803572       -2.355860
 H          -5.461705      -18.485395       -1.485926
 H          -7.777514      -20.239576        0.589519
 H          -7.226277      -18.696230        0.223013
 H          -6.898963      -20.292822       -3.549356
 H          -6.267867      -18.636238       -3.935863
 H          -9.417622      -19.128418       -0.862400
 H          -8.739626      -20.554338       -1.672808
 H          -8.829266      -18.717407       -3.347836
 H          -7.881371      -17.710268       -2.319760
