20
 generated by VMD
 C         -13.767667      -29.291256       -7.350442
 N         -13.433265      -29.064756       -8.394258
 H         -11.550159      -30.257433       -4.707718
 H         -10.193863      -30.074413       -3.693750
 C         -10.719145      -30.863323       -4.278583
 C          -9.840610      -31.408373       -5.465961
 C         -11.227098      -31.964846       -3.400817
 C          -8.659366      -32.341114       -5.019773
 C         -10.106623      -32.791874       -2.872422
 C          -9.144468      -33.388596       -3.996238
 H          -9.365037      -30.593985       -5.986710
 H         -10.541469      -31.974796       -6.206809
 H         -11.685769      -31.434914       -2.542890
 H         -12.076004      -32.460445       -3.912048
 H          -7.811748      -31.765924       -4.589545
 H          -8.260319      -32.779877       -5.931880
 H         -10.407055      -33.683327       -2.237759
 H          -9.508788      -32.176334       -2.258662
 H          -8.232959      -33.777271       -3.490996
 H          -9.565097      -34.293449       -4.375945
