20
 generated by VMD
 C         -27.653711      -86.408035      -26.216694
 N         -28.407991      -86.721436      -27.038654
 H         -30.925184      -86.882553      -25.192179
 H         -26.973492      -86.190834      -25.309578
 C         -31.916803      -87.098358      -25.594629
 C         -32.898659      -87.466354      -24.547459
 C         -32.024807      -87.408318      -27.054668
 C         -34.319626      -87.471741      -24.987053
 C         -33.498772      -87.529396      -27.493906
 C         -34.455284      -88.170021      -26.332968
 H         -32.882172      -86.748901      -23.725946
 H         -32.524906      -88.439705      -24.161880
 H         -31.551994      -86.543350      -27.602308
 H         -31.434114      -88.261940      -27.362869
 H         -34.685684      -86.401283      -25.019840
 H         -34.865673      -88.078308      -24.214935
 H         -33.600990      -88.101494      -28.433809
 H         -33.781364      -86.484886      -27.656345
 H         -35.480511      -88.183189      -26.677168
 H         -34.181480      -89.220039      -26.419971
