20
 generated by VMD
 C         -79.795097     -206.969131      -74.212372
 N         -80.411369     -206.083939      -74.704529
 H         -78.089127     -206.642426      -71.678192
 H         -79.047256     -207.774765      -73.903145
 C         -77.151146     -207.238007      -71.662804
 C         -75.781982     -206.450516      -71.604271
 C         -77.134644     -208.503387      -70.749809
 C         -75.381348     -206.161591      -70.101891
 C         -76.900314     -208.205765      -69.319328
 C         -75.544243     -207.504791      -69.349472
 H         -75.852859     -205.511627      -72.125298
 H         -75.095009     -207.130264      -72.079880
 H         -78.115921     -208.976196      -70.725746
 H         -76.366722     -209.277557      -71.000618
 H         -76.116119     -205.405487      -69.744583
 H         -74.364677     -205.846664      -69.883240
 H         -76.881134     -209.045547      -68.647919
 H         -77.737068     -207.498230      -68.953850
 H         -75.384567     -207.300659      -68.229111
 H         -74.781425     -208.146439      -69.673347
