20
 generated by VMD
 C         -68.466187     -195.017899      -65.395447
 N         -68.807388     -195.408829      -64.343315
 H         -71.222755     -194.476105      -67.546082
 H         -68.175995     -194.870911      -66.456268
 C         -72.065544     -193.960709      -67.058624
 C         -71.914955     -192.534790      -66.603432
 C         -73.467033     -194.207718      -67.755951
 C         -73.080360     -191.949081      -65.782616
 C         -74.528572     -193.750351      -66.791534
 C         -74.363419     -192.248459      -66.611809
 H         -71.786446     -191.916061      -67.491600
 H         -71.045410     -192.414474      -65.926758
 H         -73.560471     -193.555252      -68.677681
 H         -73.460861     -195.246552      -68.006760
 H         -73.153511     -190.860474      -65.684654
 H         -73.114632     -192.399078      -64.773766
 H         -74.384232     -194.234940      -65.844910
 H         -75.548897     -194.069595      -67.123680
 H         -74.184097     -191.805222      -67.492149
 H         -75.243301     -191.641617      -66.176659
