20
 generated by VMD
 C         -60.731113     -155.136490      -52.062973
 N         -60.629738     -153.941086      -52.187435
 H         -57.790382     -154.061996      -52.927856
 H         -60.950089     -156.178268      -51.961647
 C         -57.015305     -154.024277      -52.155972
 C         -57.487049     -154.005615      -50.718414
 C         -55.717384     -153.310333      -52.402275
 C         -56.327053     -154.436432      -49.880825
 C         -54.576721     -153.781998      -51.475796
 C         -54.971989     -153.613129      -50.082367
 H         -58.376873     -154.636978      -50.741539
 H         -57.691090     -152.948914      -50.404678
 H         -55.376518     -153.472626      -53.459930
 H         -55.880642     -152.276093      -52.174507
 H         -56.007977     -155.510269      -50.121265
 H         -56.698700     -154.191757      -48.881184
 H         -53.661747     -153.094620      -51.633724
 H         -54.155907     -154.768982      -51.637459
 H         -54.174118     -153.967224      -49.432785
 H         -55.275883     -152.460449      -49.995644
