20
 generated by VMD
 C         -11.865767      -42.561737       -7.147262
 N         -12.344700      -42.168537       -6.217542
 H         -14.767527      -43.427330       -8.159170
 H         -14.814345      -42.083931       -9.456477
 C         -15.237262      -43.080383       -9.161643
 C         -16.726501      -42.989342       -9.000320
 C         -14.886452      -44.009251      -10.362736
 C         -17.421576      -42.479385      -10.260497
 C         -15.603101      -43.686947      -11.608367
 C         -17.072845      -43.400211      -11.460905
 H         -16.960627      -42.307247       -8.147614
 H         -17.083628      -43.983902       -8.712443
 H         -13.785159      -43.829613      -10.569495
 H         -15.126219      -45.061539      -10.051145
 H         -17.031353      -41.472309      -10.432273
 H         -18.514721      -42.486752      -10.172971
 H         -15.397687      -44.534409      -12.337146
 H         -15.181086      -42.840714      -12.073584
 H         -17.396322      -42.827953      -12.366117
 H         -17.594498      -44.343002      -11.478665
