20
 generated by VMD
 C         -57.463753     -150.812943      -48.590576
 N         -58.375816     -151.605286      -48.527935
 H         -54.726490     -148.983017      -47.366871
 H         -56.533604     -150.179901      -48.531311
 C         -54.448364     -148.755966      -48.384766
 C         -53.834728     -149.794357      -49.352150
 C         -54.606815     -147.208542      -48.779629
 C         -54.321659     -149.603668      -50.811974
 C         -55.150291     -147.141846      -50.203171
 C         -54.297836     -148.090958      -51.192852
 H         -54.119068     -150.724487      -48.905735
 H         -52.742729     -149.560043      -49.358017
 H         -55.364067     -146.639618      -48.148724
 H         -53.592598     -146.733643      -48.769382
 H         -55.300823     -150.060394      -50.854607
 H         -53.665657     -150.069962      -51.559978
 H         -55.372147     -146.214340      -50.741577
 H         -56.094872     -147.710052      -50.057583
 H         -54.830853     -147.962830      -52.225574
 H         -53.290359     -147.631638      -51.389160
