20
 generated by VMD
 C         -77.707817     -203.119919      -69.530487
 N         -78.111580     -203.994171      -68.902626
 H         -75.607071     -202.102432      -67.727776
 H         -77.238731     -202.391327      -70.157089
 C         -74.863434     -201.520737      -68.153511
 C         -75.127586     -200.126068      -68.578903
 C         -73.856522     -202.487686      -68.817680
 C         -74.795235     -199.728516      -69.941849
 C         -73.059555     -201.779037      -69.966202
 C         -73.973343     -200.793930      -70.794899
 H         -74.629303     -199.404587      -67.874161
 H         -76.157570     -199.955246      -68.453148
 H         -73.149063     -202.875076      -68.035034
 H         -74.373611     -203.471664      -69.190704
 H         -74.185127     -198.839539      -70.085083
 H         -75.744102     -199.592834      -70.543304
 H         -72.618790     -202.418716      -70.716896
 H         -72.330338     -201.223129      -69.412018
 H         -73.456764     -200.222946      -71.629906
 H         -74.701752     -201.344803      -71.242386
