20
 generated by VMD
 C         -12.020147      -39.497429       -6.531980
 N         -11.091275      -39.199158       -7.104767
 H         -12.891404      -41.240417       -9.021845
 H         -14.130429      -39.951820       -8.779873
 C         -13.898591      -40.976231       -9.051093
 C         -14.605663      -41.855392       -7.987056
 C         -14.511552      -41.185246      -10.461115
 C         -16.129152      -41.769386       -7.979193
 C         -16.029203      -41.107826      -10.465638
 C         -16.684900      -41.998589       -9.390453
 H         -14.229490      -41.563168       -7.010365
 H         -14.358958      -42.888618       -8.208349
 H         -14.042130      -40.402088      -11.092387
 H         -14.177343      -42.159714      -10.853161
 H         -16.434019      -40.740532       -7.680003
 H         -16.491327      -42.530422       -7.315932
 H         -16.475630      -41.347145      -11.448921
 H         -16.261267      -40.052845      -10.272936
 H         -17.773018      -41.834888       -9.355225
 H         -16.649946      -43.023167       -9.736745
