20
 generated by VMD
 C         -68.273819     -193.707443      -65.544151
 N         -68.128304     -194.796555      -65.169594
 H         -71.056145     -192.047028      -67.825378
 H         -68.100830     -192.711807      -65.872017
 C         -71.618469     -192.052322      -66.907524
 C         -72.011490     -190.691879      -66.316696
 C         -72.292809     -193.279327      -66.380623
 C         -73.587624     -190.633820      -66.163811
 C         -73.144958     -192.967834      -65.105484
 C         -74.201874     -191.905899      -65.490868
 H         -71.625565     -189.888107      -67.157951
 H         -71.531998     -190.520615      -65.370117
 H         -72.998077     -193.656509      -67.191704
 H         -71.393723     -193.867111      -66.129578
 H         -74.019829     -190.718536      -67.137665
 H         -74.087044     -189.798920      -65.677505
 H         -72.521889     -192.690170      -64.280243
 H         -73.747917     -193.832016      -64.837219
 H         -75.007942     -192.310913      -66.075424
 H         -74.622276     -191.584854      -64.512375
