20
 generated by VMD
 C         -35.286701      -97.620209      -25.527100
 N         -35.358002      -97.633064      -26.700272
 H         -35.917171      -94.526337      -27.909033
 H         -35.392788      -97.584480      -24.461834
 C         -35.382214      -94.517532      -28.854139
 C         -35.892662      -95.525803      -29.829945
 C         -33.945457      -94.046982      -29.020163
 C         -35.706615      -95.020988      -31.282026
 C         -33.741230      -93.439728      -30.384769
 C         -34.237862      -94.381729      -31.491774
 H         -37.009731      -95.627800      -29.779594
 H         -35.457024      -96.506004      -29.740938
 H         -33.812080      -93.361732      -28.150976
 H         -33.326008      -94.966362      -28.927179
 H         -36.300762      -94.082451      -31.355404
 H         -36.006977      -95.665329      -32.034336
 H         -32.696915      -93.116920      -30.654751
 H         -34.414055      -92.631088      -30.323164
 H         -34.192093      -93.807396      -32.433010
 H         -33.291256      -95.163116      -31.636084
