20
 generated by VMD
 C         -68.788582     -188.428085      -66.883377
 N         -68.341293     -189.460129      -66.646446
 H         -68.287971     -187.634048      -63.140656
 H         -69.195312     -187.498444      -67.102036
 C         -69.337051     -187.864532      -63.351433
 C         -69.621964     -189.280792      -63.367016
 C         -70.450691     -186.924896      -63.041729
 C         -70.793846     -189.586639      -64.263100
 C         -71.777267     -187.253311      -63.735474
 C         -72.033882     -188.776611      -63.716728
 H         -69.698891     -189.837494      -62.383244
 H         -68.609032     -189.615738      -63.819920
 H         -70.586151     -186.956436      -61.925640
 H         -70.133430     -185.939575      -63.503765
 H         -70.964699     -190.686646      -64.255310
 H         -70.655884     -189.388504      -65.343811
 H         -71.835152     -186.902435      -64.770927
 H         -72.614433     -186.796860      -63.173943
 H         -72.130333     -189.181870      -62.711689
 H         -73.084915     -189.166779      -64.174637
