20
 generated by VMD
 C         -69.792709     -180.766052      -61.301701
 N         -69.114891     -180.553802      -62.233261
 H         -66.548332     -180.000183      -59.223228
 H         -70.509201     -180.891251      -60.449993
 C         -66.160408     -179.136703      -59.664227
 C         -65.661087     -179.302155      -61.060238
 C         -65.856483     -177.988876      -58.819077
 C         -65.154327     -178.083054      -61.788776
 C         -65.551628     -176.746445      -59.644253
 C         -64.649971     -176.923920      -60.841724
 H         -66.377960     -179.745728      -61.752106
 H         -64.723991     -179.918564      -60.860287
 H         -66.685127     -177.835022      -58.170277
 H         -65.067917     -178.465149      -58.186028
 H         -65.868881     -177.619293      -62.445560
 H         -64.262543     -178.264023      -62.425888
 H         -65.178871     -175.849380      -59.105980
 H         -66.538460     -176.459137      -59.933918
 H         -64.601036     -176.011871      -61.402988
 H         -63.681454     -177.265244      -60.580589
