20
 generated by VMD
 C         -60.238674     -156.137680      -55.984402
 N         -60.635574     -155.092056      -55.612358
 H         -59.743515     -157.810410      -52.616425
 H         -59.894939     -157.016983      -56.498440
 C         -58.858727     -157.725769      -52.020729
 C         -58.236336     -156.409698      -52.204342
 C         -58.116444     -158.966644      -51.632610
 C         -57.255756     -156.209366      -51.128582
 C         -56.989388     -158.646790      -50.638802
 C         -56.289429     -157.284042      -50.996162
 H         -58.959801     -155.563782      -52.107044
 H         -57.751068     -156.514053      -53.173283
 H         -58.931618     -159.510513      -51.050659
 H         -57.873077     -159.477325      -52.541214
 H         -57.726696     -156.079483      -50.214691
 H         -56.741009     -155.259979      -51.418556
 H         -56.308556     -159.510452      -50.582863
 H         -57.423450     -158.575272      -49.719624
 H         -55.647774     -157.058609      -50.201012
 H         -55.741096     -157.351120      -52.019726
