20
 generated by VMD
 C         -58.193054     -165.315872      -56.269241
 N         -57.469299     -166.170349      -56.622044
 H         -60.641018     -164.700989      -53.999329
 H         -58.976612     -164.632294      -55.854019
 C         -61.385143     -165.068222      -54.715080
 C         -61.788368     -166.529953      -55.046940
 C         -62.038998     -164.045029      -55.731934
 C         -63.262638     -166.688980      -55.147427
 C         -63.521702     -164.177551      -55.743679
 C         -63.820827     -165.611984      -56.095364
 H         -61.413876     -167.089111      -54.200230
 H         -61.190426     -166.897507      -55.846760
 H         -61.739346     -163.065628      -55.435654
 H         -61.511086     -164.237030      -56.690491
 H         -63.749172     -166.594879      -54.148010
 H         -63.594604     -167.563889      -55.690712
 H         -64.007339     -163.599350      -56.551594
 H         -64.065109     -164.030151      -54.701603
 H         -64.852242     -165.746994      -56.330276
 H         -63.407005     -165.882858      -57.016460
