20
 generated by VMD
 C         -58.335720     -165.395004      -56.196754
 N         -57.415657     -165.947495      -56.703335
 H         -60.803154     -164.748093      -53.976574
 H         -59.135113     -164.779892      -55.790916
 C         -61.339943     -165.078308      -54.867207
 C         -61.729778     -166.502472      -54.928333
 C         -61.956165     -164.001175      -55.686543
 C         -63.240391     -166.562973      -55.024597
 C         -63.440983     -164.147400      -55.730545
 C         -63.850269     -165.634308      -56.165283
 H         -61.343742     -166.958527      -54.062065
 H         -61.167320     -166.971649      -55.720779
 H         -61.671844     -163.103012      -55.162956
 H         -61.512512     -163.896530      -56.682480
 H         -63.721062     -166.182236      -54.111553
 H         -63.576698     -167.602280      -55.198002
 H         -63.924259     -163.517288      -56.500332
 H         -64.047882     -164.099854      -54.724823
 H         -64.915268     -165.771973      -56.169975
 H         -63.591236     -165.906662      -57.145748
