20
 generated by VMD
 C          -9.993361      -24.539333       -0.244434
 N         -10.945013      -24.999266       -0.632157
 H          -6.317480      -25.110882       -0.950568
 H          -8.002996      -24.880518       -1.112846
 C          -7.083084      -24.800869       -1.668904
 C          -6.964142      -25.709164       -2.894577
 C          -6.897690      -23.343210       -2.061765
 C          -7.952558      -25.322371       -4.035754
 C          -7.862338      -22.970669       -3.113881
 C          -7.879591      -23.836718       -4.341281
 H          -7.182720      -26.794556       -2.605890
 H          -5.919221      -25.742889       -3.249712
 H          -7.147784      -22.790380       -1.192281
 H          -5.857805      -22.997286       -2.231973
 H          -8.938204      -25.666162       -3.764789
 H          -7.736384      -25.862053       -4.969558
 H          -7.627504      -21.952477       -3.455283
 H          -8.908283      -22.880243       -2.810804
 H          -8.681816      -23.516497       -4.981828
 H          -7.042940      -23.559774       -5.020644
