20
 generated by VMD
 C         -73.897888     -200.544800      -65.601639
 N         -73.018333     -201.113831      -65.093369
 H         -73.329552     -198.021683      -66.456520
 H         -74.602898     -199.803497      -65.899521
 C         -73.628525     -197.445129      -67.340034
 C         -74.010849     -196.010574      -67.266243
 C         -72.864685     -197.795395      -68.731339
 C         -73.725945     -195.177460      -68.505142
 C         -73.811516     -197.328323      -69.924614
 C         -74.111687     -195.900574      -69.913445
 H         -73.474709     -195.382462      -66.457954
 H         -75.091148     -196.012970      -67.111069
 H         -71.921089     -197.265884      -68.851265
 H         -72.892548     -198.890518      -68.813881
 H         -72.657852     -194.892075      -68.541168
 H         -74.220589     -194.223282      -68.491043
 H         -74.679802     -197.967636      -69.979721
 H         -73.262718     -197.607559      -70.900887
 H         -73.634010     -195.334229      -70.639725
 H         -75.279938     -195.699066      -70.013458
