20
 generated by VMD
 C         -60.724911     -153.666306      -51.551445
 N         -61.414463     -154.394043      -52.042084
 H         -57.602188     -153.876083      -52.226822
 H         -60.069107     -152.961060      -51.130669
 C         -56.761742     -153.479675      -51.658775
 C         -56.695381     -153.779755      -50.212952
 C         -55.861359     -152.442764      -52.197887
 C         -55.315445     -154.076096      -49.659828
 C         -54.401299     -152.547470      -51.661270
 C         -54.433563     -152.879059      -50.111713
 H         -57.284920     -154.665344      -50.066692
 H         -57.162361     -153.214340      -49.484547
 H         -55.914604     -152.464523      -53.305965
 H         -56.310379     -151.449753      -51.934254
 H         -54.814419     -155.078461      -49.934757
 H         -55.230141     -154.112045      -48.584236
 H         -53.925995     -151.508545      -51.870289
 H         -53.903469     -153.255997      -52.282360
 H         -53.486954     -152.957932      -49.624584
 H         -54.880554     -151.941803      -49.598370
