20
 generated by VMD
 C          -2.626851       -9.019514        0.274763
 N          -1.623408       -9.371248        0.028057
 H          -2.169218      -11.949733        2.746368
 H          -2.995020      -12.530220        4.062918
 C          -3.057783      -12.511912        2.995298
 C          -2.735508      -13.912635        2.643163
 C          -4.389437      -12.070535        2.448500
 C          -3.842289      -14.844418        3.069654
 C          -5.566351      -13.064815        2.675543
 C          -5.163061      -14.510681        2.436069
 H          -1.818396      -14.270794        3.083907
 H          -2.649909      -14.084917        1.597499
 H          -4.616875      -11.021987        2.625769
 H          -4.216765      -12.106644        1.342651
 H          -3.945159      -14.853665        4.167767
 H          -3.584355      -15.849540        2.775339
 H          -6.339550      -12.802718        1.941546
 H          -6.018126      -12.868447        3.661855
 H          -6.017485      -15.125912        2.861131
 H          -5.167679      -14.730220        1.343826
