20
 generated by VMD
 C         -56.317764     -149.965485      -47.724243
 N         -57.372845     -150.295029      -47.489857
 H         -53.079651     -147.897095      -47.429996
 H         -55.257866     -149.718323      -47.895473
 C         -53.580132     -147.707382      -48.415180
 C         -53.210499     -148.527924      -49.533638
 C         -54.536819     -146.637863      -48.575497
 C         -54.204430     -148.566833      -50.641453
 C         -55.530617     -146.709869      -49.699905
 C         -54.936764     -147.195114      -50.944962
 H         -52.880890     -149.579971      -49.326794
 H         -52.270668     -148.054520      -49.849819
 H         -54.999058     -146.604874      -47.503613
 H         -53.927349     -145.737671      -48.803131
 H         -54.850315     -149.459930      -50.559666
 H         -53.609653     -148.789169      -51.558239
 H         -56.050671     -145.717194      -50.013050
 H         -56.313866     -147.366791      -49.448719
 H         -55.624638     -147.264511      -51.842373
 H         -54.171806     -146.469772      -51.290970
