20
 generated by VMD
 C          -3.724627      -18.839178        2.244261
 N          -3.237256      -18.293133        3.084914
 H          -5.626085      -20.565470        0.297957
 H          -6.233500      -21.183863       -1.182805
 C          -6.213884      -20.300833       -0.573568
 C          -5.514411      -19.255686       -1.439017
 C          -7.605007      -19.962547       -0.175378
 C          -6.432333      -18.793129       -2.626173
 C          -8.430312      -19.422506       -1.312526
 C          -7.826637      -18.366905       -2.182537
 H          -4.525117      -19.600492       -1.759521
 H          -5.433562      -18.342968       -0.899302
 H          -8.106605      -20.892159        0.271384
 H          -7.602096      -19.111891        0.600821
 H          -6.528412      -19.606976       -3.351382
 H          -6.017098      -17.913645       -3.216745
 H          -9.366787      -18.988352       -0.876349
 H          -8.754864      -20.316807       -1.875791
 H          -8.451424      -18.259087       -3.054977
 H          -7.684566      -17.418804       -1.642615
