20
 generated by VMD
 C         -38.971779     -107.928352      -37.590675
 N         -39.016354     -106.831055      -37.939541
 H         -39.779358     -108.216034      -34.685722
 H         -39.038559     -108.971283      -37.357956
 C         -40.296997     -109.149170      -34.318005
 C         -39.491695     -110.334610      -34.187275
 C         -41.703243     -109.334068      -34.160374
 C         -39.688839     -111.174133      -32.946758
 C         -42.115608     -110.053650      -32.890121
 C         -41.296688     -111.359222      -32.667358
 H         -38.497749     -109.852943      -34.213406
 H         -39.727684     -110.922340      -35.066631
 H         -42.097042     -108.346741      -34.009480
 H         -42.195370     -109.785454      -35.045921
 H         -39.343319     -110.687790      -32.042786
 H         -39.161213     -112.251656      -33.026028
 H         -43.197475     -110.247421      -32.888195
 H         -42.093792     -109.449631      -32.002232
 H         -41.525959     -111.907417      -31.658667
 H         -41.624142     -111.969627      -33.427311
