20
 generated by VMD
 C         -69.484207     -180.940445      -62.216846
 N         -70.218231     -180.052414      -62.332325
 H         -66.919212     -181.521561      -60.593555
 H         -68.746338     -181.773285      -62.216274
 C         -66.439232     -180.547226      -60.605530
 C         -64.945610     -180.443817      -60.460449
 C         -67.218094     -179.343750      -60.011272
 C         -64.455002     -179.168442      -61.102516
 C         -66.676102     -178.050522      -60.630951
 C         -65.182663     -177.952332      -60.721542
 H         -64.476990     -181.320786      -60.935974
 H         -64.638512     -180.508545      -59.368477
 H         -68.195168     -179.259628      -60.348698
 H         -67.269455     -179.325653      -58.853645
 H         -64.391289     -179.161896      -62.170620
 H         -63.401100     -179.054474      -60.820248
 H         -67.147339     -177.185349      -60.155190
 H         -67.072174     -177.978546      -61.624439
 H         -65.042999     -176.902832      -61.254604
 H         -64.840714     -177.668121      -59.646317
