20
 generated by VMD
 C          -7.217168      -23.457090        1.729735
 N          -7.414326      -22.500153        2.288289
 H          -8.896514      -23.539501       -1.331521
 H          -9.345698      -22.341820       -2.615426
 C          -8.483356      -22.783401       -2.106547
 C          -7.585086      -23.491152       -3.082865
 C          -7.785350      -21.625608       -1.343747
 C          -6.974339      -22.605009       -4.122832
 C          -7.167834      -20.659122       -2.347779
 C          -6.235474      -21.458422       -3.404801
 H          -8.215240      -24.235159       -3.576034
 H          -6.721112      -23.989481       -2.510959
 H          -8.441605      -21.062670       -0.662875
 H          -7.007259      -22.042168       -0.693953
 H          -7.684359      -22.196293       -4.831302
 H          -6.239677      -23.218035       -4.647115
 H          -6.521076      -19.944935       -1.843358
 H          -7.908322      -20.039843       -2.869015
 H          -5.878302      -20.747955       -4.188962
 H          -5.275479      -21.815998       -2.876060
