20
 generated by VMD
 C         -22.040981      -55.215965      -17.346508
 N         -22.429718      -55.339928      -18.457474
 H         -21.121223      -56.255009      -14.133766
 H         -21.856356      -54.640049      -16.289665
 C         -20.918125      -57.278645      -14.185693
 C         -20.938351      -58.275826      -12.840158
 C         -20.009003      -57.879406      -15.282556
 C         -20.859587      -59.822922      -13.163136
 C         -19.955479      -59.436245      -15.412557
 C         -19.658009      -60.154789      -14.083351
 H         -21.873018      -58.088470      -12.264705
 H         -20.027313      -58.009754      -12.188830
 H         -20.382029      -57.366161      -16.198500
 H         -19.024876      -57.563877      -15.157942
 H         -21.744173      -60.138939      -13.680297
 H         -20.911203      -60.421185      -12.271626
 H         -19.134274      -59.754120      -16.041185
 H         -20.838158      -59.849724      -15.872099
 H         -19.572119      -61.223267      -14.270969
 H         -18.768047      -59.780777      -13.544894
