20
 generated by VMD
 C         -50.413292     -129.419449      -43.112514
 N         -50.496750     -128.286575      -43.306625
 H         -48.568981     -128.090073      -39.947441
 H         -50.102009     -130.450943      -43.146893
 C         -47.564320     -127.907990      -40.311127
 C         -46.497120     -128.769897      -39.880486
 C         -47.241150     -126.582779      -40.991436
 C         -45.464596     -128.997620      -41.037968
 C         -46.251999     -126.741676      -42.047405
 C         -44.983414     -127.621643      -41.688465
 H         -47.029278     -129.759872      -39.734154
 H         -45.946320     -128.620682      -38.992794
 H         -48.279354     -126.293961      -41.505955
 H         -46.968407     -125.936363      -40.211182
 H         -45.912376     -129.578278      -41.791378
 H         -44.575436     -129.505661      -40.732555
 H         -45.878754     -125.771812      -42.426544
 H         -46.537834     -127.319084      -42.951351
 H         -44.326038     -127.869606      -42.505192
 H         -44.423763     -127.074692      -40.974010
