20
 generated by VMD
 C         -68.535355     -185.004959      -66.025177
 N         -69.540169     -185.561508      -66.045135
 H         -69.781921     -182.774399      -63.491425
 H         -67.587677     -184.532562      -65.989273
 C         -69.330231     -183.560715      -62.825893
 C         -70.040146     -184.869202      -62.664654
 C         -67.819061     -183.689316      -62.527020
 C         -69.208664     -185.958282      -62.013630
 C         -67.498611     -184.165314      -61.135944
 C         -68.405418     -185.391327      -60.768288
 H         -70.333740     -185.285995      -63.614399
 H         -70.974068     -184.744308      -62.035889
 H         -67.370399     -184.273148      -63.247601
 H         -67.440666     -182.687729      -62.637112
 H         -68.467712     -186.248291      -62.791344
 H         -69.649559     -186.939697      -61.714218
 H         -67.632828     -183.504242      -60.278946
 H         -66.431633     -184.313217      -61.125103
 H         -67.741989     -186.271637      -60.533379
 H         -68.932961     -185.338608      -59.868546
