20
 generated by VMD
 C         -58.510609     -152.111755      -49.376846
 N         -59.681667     -152.181473      -49.466705
 H         -55.647392     -149.950989      -47.742466
 H         -57.478168     -151.968216      -49.185963
 C         -55.224564     -149.744583      -48.736923
 C         -54.422478     -150.733093      -49.488510
 C         -54.888180     -148.339279      -49.006065
 C         -54.202122     -150.376465      -50.918346
 C         -54.743771     -148.047470      -50.554459
 C         -53.822762     -148.969620      -51.191246
 H         -54.925159     -151.674759      -49.232723
 H         -53.506874     -150.852554      -49.040939
 H         -55.615841     -147.643066      -48.642376
 H         -53.889679     -148.079666      -48.622425
 H         -55.026375     -150.617310      -51.592636
 H         -53.362621     -151.032944      -51.159966
 H         -54.435974     -146.936020      -50.830257
 H         -55.658554     -148.094940      -51.036041
 H         -53.770592     -148.864746      -52.252640
 H         -52.719166     -148.733170      -50.866791
