20
 generated by VMD
 C         -18.416632      -48.913944       -7.200312
 N         -19.126877      -49.736340       -7.421941
 H         -16.106516      -47.716240      -10.059844
 H         -16.248037      -49.060020      -11.189679
 C         -16.245365      -47.925591      -11.169204
 C         -15.199575      -47.374626      -12.051004
 C         -17.605623      -47.348923      -11.551109
 C         -15.456400      -47.941418      -13.457493
 C         -17.945356      -47.504501      -13.073676
 C         -16.718506      -47.317345      -13.975785
 H         -14.219898      -47.714386      -11.590125
 H         -15.275567      -46.291000      -12.177605
 H         -18.342180      -47.896835      -10.989264
 H         -17.614546      -46.288567      -11.278559
 H         -15.665256      -49.010582      -13.356791
 H         -14.605936      -47.784313      -14.113899
 H         -18.690699      -46.697109      -13.267076
 H         -18.511608      -48.416958      -13.232104
 H         -16.982321      -47.680534      -15.004270
 H         -16.517176      -46.186359      -14.110461
