20
 generated by VMD
 C         -57.702019     -165.533813      -56.521126
 N         -57.770031     -166.637726      -56.271023
 H         -60.558884     -165.059174      -54.377190
 H         -57.752529     -164.474472      -56.649204
 C         -61.578007     -165.181274      -54.804298
 C         -61.855347     -166.601501      -55.252342
 C         -62.258244     -164.077805      -55.450123
 C         -63.312668     -166.803986      -55.425110
 C         -63.701427     -164.456314      -55.740665
 C         -63.878220     -165.815018      -56.437229
 H         -61.513103     -167.498764      -54.646782
 H         -61.363300     -166.895905      -56.143230
 H         -62.202221     -163.215424      -54.790333
 H         -61.773052     -163.739441      -56.466934
 H         -63.920872     -166.551102      -54.434608
 H         -63.517239     -167.871689      -55.702423
 H         -64.054939     -163.688324      -56.257435
 H         -64.163132     -164.496170      -54.829750
 H         -64.949127     -165.979263      -56.652744
 H         -63.453529     -165.703186      -57.417126
