20
 generated by VMD
 C         -10.760811      -37.202244       -8.191925
 N         -10.330923      -36.724751       -7.252808
 H         -12.816986      -39.030182       -7.918952
 H         -14.218145      -39.217743       -6.792345
 C         -13.803623      -39.576008       -7.799241
 C         -13.690549      -41.097134       -7.854578
 C         -14.813213      -39.111832       -8.911261
 C         -15.083003      -41.725185       -7.581080
 C         -16.196140      -39.820583       -8.912392
 C         -16.111511      -41.343983       -8.674685
 H         -12.966720      -41.537445       -7.137534
 H         -13.320284      -41.473827       -8.805622
 H         -14.970993      -38.014828       -8.947241
 H         -14.333017      -39.268864       -9.837061
 H         -15.349846      -41.442345       -6.555288
 H         -15.080132      -42.815922       -7.518384
 H         -16.612621      -39.612808       -9.940161
 H         -16.776945      -39.283726       -8.194977
 H         -17.104836      -41.829739       -8.516873
 H         -15.646378      -41.788925       -9.528840
