20
 generated by VMD
 C         -49.262043     -127.365746      -39.514496
 N         -50.405708     -127.326241      -39.744263
 H         -46.870907     -127.320526      -42.539848
 H         -48.189793     -127.448669      -39.270340
 C         -46.520412     -126.461723      -41.871445
 C         -45.429623     -127.040619      -40.891476
 C         -46.556969     -124.994560      -42.088070
 C         -44.327805     -126.081741      -40.334343
 C         -45.348206     -124.111992      -41.528751
 C         -44.905975     -124.765884      -40.244240
 H         -44.956825     -127.958115      -41.153961
 H         -45.972523     -127.410225      -39.922955
 H         -46.583145     -124.916023      -43.222069
 H         -47.450180     -124.630211      -41.695961
 H         -43.431004     -126.066689      -40.950027
 H         -44.067204     -126.484390      -39.348797
 H         -45.779465     -123.159622      -41.413757
 H         -44.601700     -123.854942      -42.241585
 H         -44.161659     -124.019142      -39.884441
 H         -45.730755     -124.728455      -39.507729
