20
 generated by VMD
 C         -11.295184      -33.559494       -9.260467
 N         -10.535710      -32.965977       -8.748195
 H         -12.194646      -35.365631       -7.730033
 H         -12.496657      -35.036949       -6.016361
 C         -12.575617      -35.815319       -6.763650
 C         -11.719889      -37.073841       -6.449918
 C         -13.968746      -36.379990       -7.112431
 C         -12.271453      -37.881222       -5.308638
 C         -14.595004      -37.148640       -5.967499
 C         -13.724479      -38.332439       -5.553540
 H         -10.707333      -36.759705       -6.187530
 H         -11.552392      -37.637592       -7.402352
 H         -14.615072      -35.508190       -7.390702
 H         -13.948157      -36.958328       -8.016619
 H         -12.228906      -37.332077       -4.356612
 H         -11.751304      -38.774620       -5.022691
 H         -15.607411      -37.586266       -6.353107
 H         -14.803545      -36.501659       -5.138172
 H         -14.134347      -38.797718       -4.657083
 H         -13.601142      -39.099510       -6.364786
