20
 generated by VMD
 C         -28.153259      -84.621765      -26.078909
 N         -28.300154      -84.243507      -27.170092
 H         -31.543522      -84.502327      -26.292120
 H         -27.906128      -85.128517      -25.078602
 C         -31.488579      -85.493889      -25.838343
 C         -31.596567      -85.724632      -24.380568
 C         -31.890600      -86.620407      -26.783705
 C         -33.028046      -86.274918      -23.975586
 C         -33.285336      -87.147324      -26.306089
 C         -33.429993      -87.477310      -24.849678
 H         -31.285545      -84.866341      -23.691092
 H         -30.930506      -86.525581      -24.003693
 H         -31.893141      -86.285805      -27.798651
 H         -31.066525      -87.360031      -26.621548
 H         -33.851288      -85.506065      -24.085207
 H         -33.056004      -86.630127      -22.984108
 H         -33.378872      -87.974449      -26.957340
 H         -34.024330      -86.349037      -26.670090
 H         -34.489025      -87.706009      -24.454771
 H         -32.792706      -88.357964      -24.614315
