20
 generated by VMD
 C         -68.518021     -194.059830      -66.610916
 N         -67.727829     -193.863449      -65.766693
 H         -70.120529     -190.963837      -66.071930
 H         -69.423637     -194.264465      -67.097061
 C         -71.161682     -190.996857      -65.853745
 C         -72.256721     -190.306686      -66.583290
 C         -71.423943     -191.552063      -64.544510
 C         -73.587509     -191.174316      -66.588608
 C         -72.934067     -191.568130      -64.174309
 C         -73.866661     -191.880920      -65.316170
 H         -72.004829     -190.015076      -67.573517
 H         -72.526711     -189.262756      -66.048767
 H         -71.012825     -192.589890      -64.513527
 H         -70.858139     -191.046478      -63.708717
 H         -73.572304     -192.008545      -67.327400
 H         -74.420883     -190.465515      -66.784752
 H         -73.304161     -190.533539      -63.920219
 H         -73.219955     -192.132980      -63.301064
 H         -73.732170     -192.979599      -65.552887
 H         -74.937004     -191.939011      -64.936478
