20
 generated by VMD
 C         -19.913534      -60.750889      -17.037933
 N         -19.368536      -59.939342      -17.635906
 H         -23.626728      -60.398460      -16.549864
 H         -20.698925      -61.415478      -16.482832
 C         -23.418730      -61.497204      -16.576454
 C         -23.198994      -62.289299      -17.891891
 C         -23.272421      -61.995960      -15.219649
 C         -23.333138      -63.825478      -17.714394
 C         -23.126015      -63.480686      -15.297778
 C         -23.949717      -64.228485      -16.349407
 H         -22.359999      -61.864197      -18.523174
 H         -24.137760      -61.837749      -18.482239
 H         -22.387079      -61.551781      -14.624089
 H         -24.155781      -61.660206      -14.558091
 H         -22.304014      -64.206985      -17.661072
 H         -23.801710      -64.378761      -18.480564
 H         -23.414032      -63.767483      -14.305950
 H         -22.066122      -63.693596      -15.494508
 H         -23.723522      -65.301025      -16.269369
 H         -25.062977      -64.060127      -16.226675
