20
 generated by VMD
 C         -20.558643      -64.570793      -17.151806
 N         -20.033401      -64.931702      -16.188362
 H         -24.263557      -63.389603      -17.893187
 H         -20.945515      -64.126251      -18.177666
 C         -24.454227      -64.479538      -17.983912
 C         -24.752222      -64.755142      -19.506418
 C         -24.962543      -65.413528      -16.916708
 C         -24.573545      -66.291885      -19.711498
 C         -24.856909      -66.925972      -17.315878
 C         -25.298317      -67.125473      -18.705681
 H         -24.066656      -64.340630      -20.193895
 H         -25.742130      -64.332848      -19.651848
 H         -24.559847      -65.157356      -15.897458
 H         -25.944407      -65.177582      -16.649094
 H         -23.466856      -66.410202      -19.722059
 H         -24.980459      -66.453125      -20.747255
 H         -25.378166      -67.507080      -16.587940
 H         -23.799622      -67.240456      -17.287607
 H         -25.151596      -68.132050      -18.973061
 H         -26.387150      -67.019196      -18.694426
