20
 generated by VMD
 C          -1.779709      -16.506336        2.388748
 N          -1.983825      -15.430598        2.602889
 H          -4.293071      -15.879202        0.091893
 H          -4.550871      -17.036404       -1.278940
 C          -5.018439      -16.603777       -0.335560
 C          -6.256070      -15.832042       -0.736012
 C          -5.250137      -17.711958        0.637653
 C          -7.452277      -16.712959       -1.123666
 C          -6.509753      -18.595629        0.328430
 C          -7.733279      -17.697773       -0.016187
 H          -5.955000      -15.159281       -1.599445
 H          -6.587008      -15.238923        0.102202
 H          -4.383846      -18.326538        0.755935
 H          -5.577862      -17.231138        1.526375
 H          -7.249919      -17.329094       -2.019871
 H          -8.306771      -16.091894       -1.312506
 H          -6.702926      -19.183985        1.246455
 H          -6.276750      -19.307968       -0.448295
 H          -8.608388      -18.305882       -0.274820
 H          -8.065527      -17.161875        0.918775
