20
 generated by VMD
 C         -70.231987     -182.784561      -63.703564
 N         -69.635368     -183.027222      -64.689835
 H         -68.803627     -179.841537      -62.005199
 H         -70.760475     -182.518631      -62.757095
 C         -67.920288     -180.346634      -61.564983
 C         -67.677467     -181.781113      -61.313900
 C         -67.107925     -179.391724      -60.792183
 C         -66.206108     -182.267792      -60.985199
 C         -65.600334     -179.886917      -60.596054
 C         -65.592300     -181.329590      -60.012917
 H         -68.157097     -182.360245      -62.092037
 H         -68.429237     -182.073349      -60.511616
 H         -67.163170     -178.401459      -61.204945
 H         -67.653198     -179.289139      -59.755081
 H         -65.536774     -182.233704      -61.983379
 H         -66.167419     -183.322937      -60.503086
 H         -65.050491     -179.232880      -59.928181
 H         -65.247467     -179.938995      -61.634682
 H         -64.650490     -181.690231      -59.699402
 H         -66.339035     -181.200607      -59.165428
