20
 generated by VMD
 C         -79.484467     -206.821640      -74.895096
 N         -79.995453     -207.667145      -74.228661
 H         -76.918282     -207.609329      -73.301956
 H         -79.126900     -206.105362      -75.604210
 C         -76.935814     -207.819366      -72.233765
 C         -75.667259     -207.672562      -71.480606
 C         -77.756500     -208.926132      -71.690178
 C         -75.828705     -207.595627      -69.929314
 C         -78.127678     -208.720108      -70.241898
 C         -76.767143     -208.577164      -69.397423
 H         -75.304657     -206.625015      -71.668129
 H         -74.991806     -208.366425      -71.996101
 H         -78.702057     -209.061035      -72.206200
 H         -77.179184     -209.855484      -71.710381
 H         -76.056244     -206.567993      -69.683144
 H         -74.772606     -207.751678      -69.568405
 H         -78.812447     -209.498260      -69.858887
 H         -78.661827     -207.774918      -70.069344
 H         -76.925858     -208.310883      -68.307831
 H         -76.366875     -209.556442      -69.583992
