20
 generated by VMD
 C         -78.654907     -210.209335      -76.423027
 N         -77.608521     -210.416321      -76.828705
 H         -79.523689     -212.113693      -74.736427
 H         -79.601662     -210.122833      -76.067101
 C         -79.608757     -212.305008      -73.689980
 C         -78.311455     -212.488632      -72.960098
 C         -80.819099     -213.027252      -73.192352
 C         -78.457848     -212.747986      -71.411163
 C         -80.742714     -213.597015      -71.727989
 C         -79.342186     -213.888016      -71.167534
 H         -77.701660     -211.611740      -73.152603
 H         -77.737701     -213.300293      -73.385307
 H         -81.669060     -212.286819      -73.281090
 H         -80.962112     -213.886276      -73.756882
 H         -78.810661     -211.901291      -70.792778
 H         -77.415794     -212.867279      -70.958633
 H         -81.641563     -214.226913      -71.424713
 H         -81.046364     -212.615891      -71.276497
 H         -79.454590     -214.006332      -70.076889
 H         -78.932732     -214.951416      -71.461143
