20
 generated by VMD
 C         -29.114595      -81.337357      -27.745476
 N         -29.854158      -80.451775      -27.559418
 H         -28.611843      -82.382034      -23.929773
 H         -28.490074      -82.120964      -27.651735
 C         -29.278629      -83.209450      -23.763292
 C         -29.825180      -83.676262      -22.374111
 C         -30.017391      -83.896996      -24.913336
 C         -31.320885      -83.888123      -22.270552
 C         -31.524733      -83.932724      -24.802763
 C         -31.852388      -84.673004      -23.489029
 H         -29.491516      -82.924576      -21.603449
 H         -29.357178      -84.614235      -22.221617
 H         -29.925037      -83.402428      -25.875305
 H         -29.546038      -84.838303      -25.021664
 H         -31.675705      -82.915489      -22.354555
 H         -31.328390      -84.410759      -21.229778
 H         -32.036484      -84.475555      -25.601151
 H         -31.988207      -83.009300      -24.741137
 H         -32.885754      -84.915146      -23.288763
 H         -31.431669      -85.650017      -23.651966
