20
 generated by VMD
 C         -13.469873      -30.724787       -8.329526
 N         -13.308533      -30.055336       -9.195824
 H         -11.200499      -31.776714       -6.064169
 H         -11.496109      -31.742352       -4.435270
 C         -11.115988      -32.400761       -5.152755
 C          -9.622430      -32.935101       -4.931327
 C         -12.098778      -33.543472       -5.385900
 C          -9.485847      -34.109642       -3.922441
 C         -11.919644      -34.686615       -4.340247
 C         -10.463562      -35.167633       -4.299275
 H          -8.903382      -32.096939       -4.659501
 H          -9.191157      -33.246407       -5.874601
 H         -13.153565      -33.213257       -5.243927
 H         -12.164433      -33.992554       -6.399675
 H          -9.629119      -33.757351       -2.869643
 H          -8.404476      -34.468960       -3.942559
 H         -12.649807      -35.532307       -4.536638
 H         -12.283510      -34.312149       -3.342207
 H         -10.458502      -36.004383       -3.577312
 H         -10.096083      -35.621723       -5.236626
