20
 generated by VMD
 C         -60.740364     -155.075500      -51.966915
 N         -60.637211     -153.969406      -52.192677
 H         -57.694744     -154.051132      -53.060959
 H         -60.829239     -156.113632      -51.702473
 C         -57.018494     -153.941666      -52.218903
 C         -57.439224     -153.979660      -50.777538
 C         -55.656406     -153.297104      -52.442646
 C         -56.269764     -154.437210      -49.770664
 C         -54.549824     -153.724976      -51.510139
 C         -55.077484     -153.589386      -50.040607
 H         -58.322777     -154.620621      -50.459358
 H         -57.842342     -152.941925      -50.525440
 H         -55.364891     -153.358658      -53.514843
 H         -55.831409     -152.246704      -52.349613
 H         -56.096657     -155.547653      -50.088726
 H         -56.411633     -154.634262      -48.696884
 H         -53.638088     -153.011093      -51.647396
 H         -54.279873     -154.717300      -51.809204
 H         -54.296257     -153.847534      -49.302921
 H         -55.176338     -152.448013      -49.706505
