20
 generated by VMD
 C         -38.702122     -111.466835      -36.375912
 N         -38.346642     -110.467499      -36.851814
 H         -40.408916     -114.499802      -34.740231
 H         -38.958519     -112.482903      -36.083752
 C         -41.298523     -114.037376      -35.151173
 C         -41.727299     -114.290695      -36.568935
 C         -42.062119     -113.152145      -34.293533
 C         -43.215431     -114.080681      -36.923252
 C         -43.574074     -113.030617      -34.588287
 C         -43.812813     -112.923111      -36.002975
 H         -41.526455     -115.302719      -36.960587
 H         -41.064960     -113.784920      -37.250187
 H         -41.956802     -113.403694      -33.197876
 H         -41.793091     -112.115799      -34.400444
 H         -43.733578     -115.090508      -36.589985
 H         -43.344059     -113.877663      -37.986977
 H         -43.972424     -112.135368      -34.082848
 H         -44.024326     -113.859360      -34.035545
 H         -44.832142     -112.855835      -36.238148
 H         -43.280220     -112.086555      -36.388935
