20
 generated by VMD
 C          -1.639585      -14.122561        1.962295
 N          -1.912595      -13.345925        1.210411
 H          -3.762586      -17.103662        1.289378
 H          -4.298366      -17.071377       -0.445494
 C          -4.603312      -17.049559        0.609033
 C          -5.252700      -15.765661        0.901975
 C          -5.539449      -18.209190        0.935404
 C          -6.527637      -15.583779        0.054577
 C          -6.809374      -18.117552        0.085229
 C          -7.484777      -16.758261        0.141305
 H          -4.626977      -14.920573        0.631883
 H          -5.472469      -15.663728        1.963414
 H          -4.972282      -19.110258        0.699071
 H          -5.895164      -18.070831        1.927068
 H          -6.153746      -15.444374       -1.019939
 H          -6.905224      -14.574000        0.258690
 H          -7.527640      -18.947392        0.440428
 H          -6.644176      -18.321901       -0.991749
 H          -8.322791      -16.684639       -0.560124
 H          -7.952280      -16.805754        1.126534
