20
 generated by VMD
 C         -13.383207      -43.316624       -6.538486
 N         -12.916814      -42.503307       -7.145888
 H         -14.867743      -44.477119       -8.474765
 H         -14.424088      -43.079071       -9.276402
 C         -15.143446      -43.822319       -9.335118
 C         -16.526009      -43.207222       -9.022712
 C         -14.943239      -44.633480      -10.688051
 C         -17.055767      -42.543907      -10.277714
 C         -15.586619      -43.976643      -11.859135
 C         -16.986023      -43.541569      -11.453818
 H         -16.445097      -42.432034       -8.224173
 H         -17.208660      -43.960529       -8.641410
 H         -13.874949      -44.794357      -10.796897
 H         -15.271863      -45.673622      -10.629511
 H         -16.429588      -41.653374      -10.500356
 H         -18.089338      -42.160130      -10.105079
 H         -15.494096      -44.687325      -12.763844
 H         -15.129842      -43.050495      -12.087950
 H         -17.364834      -42.988960      -12.329147
 H         -17.552221      -44.432060      -11.258614
