20
 generated by VMD
 C         -40.529896     -104.342278      -36.372475
 N         -39.614403     -104.968903      -36.675995
 H         -40.231598     -107.379166      -34.996922
 H         -41.343243     -103.700020      -36.163960
 C         -39.802654     -107.619041      -34.019203
 C         -38.724617     -106.813644      -33.441700
 C         -40.040653     -109.002640      -33.548073
 C         -38.509754     -106.956161      -31.918798
 C         -39.855347     -109.146919      -31.952202
 C         -38.532326     -108.394630      -31.600153
 H         -38.797344     -105.782417      -33.818199
 H         -37.784359     -107.114182      -33.878780
 H         -40.931381     -109.360260      -33.986221
 H         -39.205574     -109.661110      -33.849213
 H         -39.384743     -106.469589      -31.409899
 H         -37.566494     -106.542099      -31.564640
 H         -39.848541     -110.112770      -31.610657
 H         -40.739704     -108.654785      -31.550859
 H         -38.537712     -108.583046      -30.525953
 H         -37.711380     -108.913559      -32.026459
