20
 generated by VMD
 C         -35.466450      -97.375816      -25.648615
 N         -34.747574      -97.808395      -26.433540
 H         -35.609676      -94.424355      -27.805042
 H         -36.187389      -97.055435      -24.856424
 C         -35.290760      -94.412582      -28.829666
 C         -35.993389      -95.327385      -29.806612
 C         -33.925804      -93.846199      -29.004131
 C         -35.720165      -94.731834      -31.152784
 C         -33.775654      -93.342590      -30.414171
 C         -34.252544      -94.400490      -31.454033
 H         -37.101364      -95.290222      -29.574583
 H         -35.672974      -96.316872      -29.572758
 H         -33.660698      -93.132782      -28.187450
 H         -33.093704      -94.592438      -28.942938
 H         -36.440060      -93.920135      -31.387081
 H         -36.032333      -95.459473      -31.824734
 H         -32.763412      -93.026306      -30.730154
 H         -34.314266      -92.419174      -30.481291
 H         -34.170628      -94.058098      -32.499088
 H         -33.679966      -95.487259      -31.399530
