20
 generated by VMD
 C         -10.705297      -40.230480       -7.084685
 N         -11.449438      -40.266026       -6.231487
 H         -13.698641      -40.639542       -8.862519
 H         -15.171822      -39.978416       -9.590925
 C         -14.699476      -40.883945       -9.233955
 C         -15.487006      -41.617886       -8.124162
 C         -14.563027      -41.793156      -10.467127
 C         -16.832941      -42.113438       -8.623325
 C         -15.961021      -42.136303      -10.961639
 C         -16.721315      -42.933975       -9.926834
 H         -15.562549      -40.805630       -7.322031
 H         -14.848868      -42.465733       -7.753733
 H         -13.982982      -41.297237      -11.328928
 H         -14.058102      -42.727661      -10.257101
 H         -17.492853      -41.262939       -8.825214
 H         -17.250372      -42.766048       -7.854486
 H         -15.861325      -42.751217      -11.800491
 H         -16.583340      -41.234337      -11.338840
 H         -17.705557      -43.237904      -10.312881
 H         -16.298923      -43.913795       -9.771863
