20
 generated by VMD
 C         -58.436340     -160.281052      -56.951553
 N         -58.637108     -159.857101      -57.991573
 H         -58.763695     -163.174072      -54.902557
 H         -58.207497     -160.698135      -56.003162
 C         -59.645191     -163.189407      -54.246384
 C         -59.466282     -163.175186      -52.789631
 C         -61.084927     -163.325775      -54.581841
 C         -60.376598     -162.206390      -52.150444
 C         -61.916492     -162.184875      -54.124416
 C         -61.823189     -162.240906      -52.613815
 H         -58.447662     -162.827454      -52.607906
 H         -59.551846     -164.114365      -52.366959
 H         -61.208168     -163.447678      -55.713093
 H         -61.472698     -164.194916      -54.005810
 H         -60.011555     -161.270828      -52.206993
 H         -60.262131     -162.441864      -51.061413
 H         -62.918930     -162.224747      -54.571342
 H         -61.653328     -161.134750      -54.248825
 H         -62.280769     -161.297668      -52.235794
 H         -62.401257     -163.030197      -52.251633
