20
 generated by VMD
 C         -18.767521      -49.916412       -9.572409
 N         -19.525331      -50.821499       -9.545577
 H         -16.459175      -47.376133       -9.953260
 H         -17.791265      -49.259014       -9.426338
 C         -16.581835      -47.735710      -10.950317
 C         -15.724603      -48.837868      -11.480994
 C         -17.483683      -47.131042      -11.937288
 C         -16.380062      -49.741539      -12.584144
 C         -17.949432      -47.930355      -13.155720
 C         -16.914885      -48.903164      -13.743462
 H         -15.517661      -49.466923      -10.647141
 H         -14.744787      -48.429661      -11.810994
 H         -18.395039      -46.875549      -11.332330
 H         -17.029726      -46.161663      -12.272281
 H         -17.131536      -50.388313      -12.185629
 H         -15.585025      -50.339527      -13.020367
 H         -18.364342      -47.228264      -13.845481
 H         -18.841295      -48.590107      -12.815550
 H         -17.226965      -49.562183      -14.507217
 H         -16.152882      -48.293411      -14.126146
