20
 generated by VMD
 C         -23.011347      -55.385555      -16.725430
 N         -23.485922      -54.762798      -15.860183
 H         -19.201431      -55.377892      -15.601801
 H         -22.625332      -55.580700      -17.609690
 C         -19.193005      -56.236858      -14.875607
 C         -20.031429      -56.128613      -13.550335
 C         -18.359339      -57.417667      -15.116915
 C         -20.730068      -57.508533      -13.256825
 C         -19.107580      -58.723511      -14.757683
 C         -19.656448      -58.656403      -13.286516
 H         -20.593718      -55.207745      -13.512959
 H         -19.380699      -56.085892      -12.711354
 H         -17.931473      -57.497211      -16.170959
 H         -17.484133      -57.216473      -14.489249
 H         -21.423355      -57.727898      -14.058306
 H         -21.352703      -57.431377      -12.343643
 H         -18.340160      -59.493851      -14.884973
 H         -20.007404      -58.968884      -15.405704
 H         -20.070095      -59.610355      -12.912121
 H         -18.742998      -58.483185      -12.673380
