20
 generated by VMD
 C         -27.127422      -72.660675      -17.741184
 N         -27.878874      -73.349503      -17.193319
 H         -24.371773      -70.087982      -18.763145
 H         -26.542660      -72.067154      -18.302799
 C         -24.804565      -70.384644      -19.739388
 C         -24.276451      -71.715851      -20.391798
 C         -25.661701      -69.555489      -20.603510
 C         -25.384552      -72.393982      -21.327854
 C         -26.494669      -70.179893      -21.655590
 C         -25.867481      -71.339470      -22.418447
 H         -24.068777      -72.229042      -19.451450
 H         -23.306585      -71.431984      -20.884743
 H         -26.341650      -68.971573      -20.019741
 H         -24.886488      -68.844688      -21.039305
 H         -26.297573      -72.689400      -20.770323
 H         -25.056782      -73.282677      -21.850138
 H         -26.591976      -69.381187      -22.491039
 H         -27.625307      -70.316238      -21.354345
 H         -26.697731      -71.807793      -22.951365
 H         -25.009737      -71.142006      -22.980812
