20
 generated by VMD
 C         -27.595938      -81.393410      -26.996046
 N         -28.359377      -81.952599      -27.645935
 H         -30.328253      -83.669777      -25.982262
 H         -26.955290      -80.911751      -26.182272
 C         -30.934704      -84.221451      -25.265392
 C         -30.648638      -84.260849      -23.812140
 C         -31.695356      -85.476402      -25.702221
 C         -31.816420      -84.707230      -22.870274
 C         -32.781002      -86.056648      -24.787827
 C         -32.348694      -86.056938      -23.311375
 H         -30.450573      -83.193115      -23.553865
 H         -29.819050      -84.961159      -23.629827
 H         -32.089142      -85.153091      -26.609377
 H         -31.093098      -86.362732      -25.900536
 H         -32.588913      -83.931915      -22.884542
 H         -31.427576      -84.630241      -21.839033
 H         -33.004898      -87.079353      -25.165468
 H         -33.709003      -85.560806      -24.800915
 H         -33.152245      -86.351646      -22.693968
 H         -31.523228      -86.816689      -23.163010
