20
 generated by VMD
 C         -47.534309     -139.385193      -45.793221
 N         -46.711170     -138.789825      -46.434128
 H         -50.932312     -138.346085      -44.992512
 H         -48.358082     -139.649094      -45.093494
 C         -51.823292     -138.931137      -45.182335
 C         -51.924801     -139.320221      -46.618912
 C         -53.039459     -138.623428      -44.488960
 C         -52.981590     -140.257812      -46.958244
 C         -54.183071     -139.660629      -44.779133
 C         -54.257896     -139.842438      -46.231884
 H         -50.981781     -139.693787      -46.832924
 H         -52.047894     -138.442398      -47.251564
 H         -52.843689     -138.622498      -43.400890
 H         -53.336914     -137.586166      -44.721924
 H         -52.816185     -141.255310      -46.617165
 H         -53.191196     -140.291687      -48.048584
 H         -55.096275     -139.232880      -44.275101
 H         -54.049065     -140.607422      -44.409195
 H         -55.157021     -140.390503      -46.612637
 H         -54.598236     -138.683136      -46.648586
