20
 generated by VMD
 C         -38.807732     -112.457962      -35.776428
 N         -38.398762     -111.843712      -36.693127
 H         -41.345310     -115.258141      -34.859970
 H         -39.359634     -112.745872      -34.925900
 C         -41.533413     -114.285805      -35.478481
 C         -41.771042     -114.231361      -36.985748
 C         -42.421825     -113.281006      -34.709160
 C         -43.295490     -114.704147      -37.286858
 C         -43.898418     -113.524925      -34.971760
 C         -44.194988     -113.583221      -36.520042
 H         -41.207851     -114.933418      -37.533455
 H         -41.802979     -113.251518      -37.336758
 H         -42.075703     -113.494499      -33.669800
 H         -42.233498     -112.214439      -34.999779
 H         -43.486103     -115.751114      -36.903877
 H         -43.390896     -114.595665      -38.344307
 H         -44.338009     -112.665161      -34.542675
 H         -44.256157     -114.390945      -34.401798
 H         -45.263290     -113.958961      -36.673660
 H         -43.963604     -112.612762      -36.998112
