20
 generated by VMD
 C         -70.727859     -181.441544      -64.182358
 N         -70.449799     -182.320572      -63.520432
 H         -68.170479     -181.282898      -61.127632
 H         -70.994270     -180.553864      -64.707970
 C         -67.376251     -180.751877      -60.759750
 C         -66.264618     -181.742722      -60.431572
 C         -67.342453     -179.321121      -60.503765
 C         -64.978241     -181.154953      -60.843967
 C         -65.988762     -178.733185      -60.820023
 C         -64.823486     -179.685181      -60.328274
 H         -66.385284     -182.741974      -60.904652
 H         -66.053581     -181.771439      -59.299564
 H         -68.125458     -178.815353      -61.082199
 H         -67.520363     -179.078522      -59.348911
 H         -64.734596     -181.155914      -61.944637
 H         -64.081665     -181.726501      -60.455421
 H         -65.916420     -177.720810      -60.374260
 H         -65.866592     -178.540176      -61.898247
 H         -63.955498     -179.214859      -60.544319
 H         -64.917091     -179.835922      -59.227524
