20
 generated by VMD
 C         -73.874252     -200.498352      -65.648865
 N         -73.137329     -201.112686      -64.979111
 H         -72.724380     -197.634674      -66.429848
 H         -74.503319     -199.759430      -66.134552
 C         -73.066124     -197.184906      -67.353661
 C         -73.946243     -195.876587      -67.282631
 C         -72.724007     -197.692627      -68.812874
 C         -73.820213     -195.077881      -68.559059
 C         -73.816925     -197.320053      -69.811005
 C         -74.384880     -195.902084      -69.725609
 H         -73.711632     -195.430771      -66.218376
 H         -74.998940     -196.032257      -67.176987
 H         -71.697884     -197.526016      -69.124260
 H         -72.681786     -198.791565      -68.757454
 H         -72.763092     -194.797409      -68.719475
 H         -74.454041     -194.230148      -68.389816
 H         -74.629616     -198.029205      -69.737877
 H         -73.410812     -197.353287      -70.870056
 H         -74.290398     -195.491669      -70.698433
 H         -75.584343     -196.033875      -69.617661
