20
 generated by VMD
 C         -27.691013      -86.407234      -26.196510
 N         -28.373066      -86.772324      -27.050201
 H         -30.825943      -87.030067      -25.265038
 H         -27.188532      -85.976486      -25.352873
 C         -31.860077      -87.084015      -25.628576
 C         -32.905224      -87.511841      -24.528036
 C         -32.069012      -87.445412      -27.045334
 C         -34.330044      -87.514824      -25.025778
 C         -33.520618      -87.523941      -27.415445
 C         -34.421238      -88.155769      -26.417044
 H         -32.599892      -86.750229      -23.795389
 H         -32.708355      -88.479736      -24.202271
 H         -31.601597      -86.618782      -27.616789
 H         -31.533655      -88.391563      -27.195328
 H         -34.768463      -86.495743      -25.204493
 H         -35.214195      -87.964806      -24.391373
 H         -33.635349      -87.966682      -28.359783
 H         -33.956429      -86.514175      -27.633278
 H         -35.479954      -88.050804      -26.675261
 H         -34.135990      -89.168709      -26.201929
