20
 generated by VMD
 C         -55.379803     -148.749588      -45.281483
 N         -54.726025     -149.086685      -44.357311
 H         -54.614300     -148.259445      -48.838150
 H         -56.096954     -148.548599      -46.033936
 C         -54.380112     -147.209885      -49.183228
 C         -53.200630     -146.993164      -50.000095
 C         -54.947849     -146.024017      -48.516247
 C         -53.348362     -145.937897      -51.033459
 C         -55.134602     -144.858597      -49.575573
 C         -53.883305     -144.632324      -50.451401
 H         -52.728928     -147.902374      -50.360889
 H         -52.368618     -146.626862      -49.412300
 H         -55.949951     -146.219162      -48.150520
 H         -54.376972     -145.688339      -47.676186
 H         -53.953197     -146.266296      -51.848255
 H         -52.332699     -145.617645      -51.318916
 H         -55.213383     -143.979080      -48.980679
 H         -56.040272     -144.962234      -50.131142
 H         -54.077965     -143.966095      -51.247318
 H         -53.220341     -144.228333      -49.725552
