20
 generated by VMD
 C         -79.202713     -205.796661      -74.064201
 N         -79.200310     -206.831039      -73.594406
 H         -78.689682     -206.080765      -70.261604
 H         -79.236702     -204.862259      -74.639084
 C         -77.647293     -206.362640      -70.481140
 C         -76.763878     -205.521057      -71.361420
 C         -77.246170     -207.690826      -69.888420
 C         -75.377129     -205.495102      -70.690430
 C         -75.843658     -207.418839      -69.227104
 C         -74.838264     -206.797256      -70.204651
 H         -76.981522     -204.504669      -71.703506
 H         -76.774361     -206.201782      -72.253494
 H         -78.013306     -208.166428      -69.182861
 H         -76.994270     -208.449753      -70.642197
 H         -75.392578     -204.739136      -69.901680
 H         -74.700363     -205.260391      -71.511879
 H         -75.503998     -208.391418      -68.887718
 H         -75.929428     -206.882965      -68.302292
 H         -73.929642     -206.683029      -69.672333
 H         -74.720474     -207.528198      -71.071228
