20
 generated by VMD
 C         -51.795773     -129.871613      -45.231190
 N         -51.733959     -129.753738      -46.403843
 H         -48.600971     -130.006058      -43.244003
 H         -52.223640     -130.055710      -44.276741
 C         -47.863132     -130.234299      -42.476330
 C         -47.931919     -131.639374      -41.811607
 C         -47.358780     -129.063797      -41.635197
 C         -46.625996     -131.888916      -41.032909
 C         -46.144806     -129.439041      -40.870750
 C         -46.310295     -130.719498      -40.111858
 H         -48.025013     -132.392487      -42.532467
 H         -48.924076     -131.718079      -41.146561
 H         -47.166386     -128.238815      -42.379025
 H         -48.149933     -128.785995      -41.056744
 H         -45.764168     -132.151047      -41.681622
 H         -46.767044     -132.891907      -40.608845
 H         -45.860668     -128.647934      -40.121738
 H         -45.235134     -129.569916      -41.635742
 H         -45.389400     -131.008438      -39.657608
 H         -47.084484     -130.662216      -39.333782
