20
 generated by VMD
 C         -61.009304     -156.247147      -54.870762
 N         -60.224876     -155.586761      -55.461502
 H         -59.692898     -156.624908      -51.958889
 H         -61.679745     -156.737427      -54.189610
 C         -58.679455     -156.683624      -51.710823
 C         -57.976543     -155.417023      -51.620560
 C         -57.840458     -157.900177      -52.011868
 C         -56.772945     -155.572006      -50.769073
 C         -56.639740     -158.043182      -51.118244
 C         -55.884033     -156.770737      -51.083324
 H         -58.747105     -154.718643      -51.073032
 H         -57.654583     -154.882782      -52.525726
 H         -58.453720     -158.778030      -51.987972
 H         -57.512756     -157.885254      -53.014999
 H         -57.223186     -155.633362      -49.746765
 H         -56.057323     -154.736145      -50.643322
 H         -55.919754     -158.896255      -51.431099
 H         -57.051060     -158.426544      -50.194363
 H         -55.071426     -156.875320      -50.297020
 H         -55.299572     -156.554794      -51.954826
