20
 generated by VMD
 C         -54.753227     -148.332275      -45.193840
 N         -54.502777     -148.550018      -44.094810
 H         -54.606140     -148.067657      -49.068798
 H         -54.993324     -148.261108      -46.219944
 C         -54.518177     -147.051819      -49.374672
 C         -53.188393     -146.822281      -50.037537
 C         -54.962627     -145.922165      -48.539165
 C         -53.306561     -145.528778      -50.930515
 C         -55.111191     -144.705475      -49.317818
 C         -53.795300     -144.322906      -50.048210
 H         -52.952972     -147.794815      -50.603264
 H         -52.451675     -146.638718      -49.276867
 H         -56.070374     -146.237915      -48.289574
 H         -54.417767     -145.778030      -47.574982
 H         -53.966125     -145.716019      -51.805214
 H         -52.226841     -145.373642      -51.313496
 H         -55.588776     -143.923050      -48.798805
 H         -55.941460     -145.023132      -50.166367
 H         -54.105247     -143.603317      -50.830730
 H         -53.077267     -143.920486      -49.285664
