20
 generated by VMD
 C         -29.388187      -90.101974      -25.144592
 N         -29.085413      -91.176270      -25.413910
 H         -32.251682      -91.057335      -26.851999
 H         -29.850891      -89.064072      -24.999598
 C         -33.091373      -90.822906      -27.512894
 C         -34.393082      -91.472336      -27.520452
 C         -32.922329      -89.718895      -28.484264
 C         -35.580944      -90.521561      -27.334122
 C         -33.973591      -88.681122      -28.385187
 C         -35.431431      -89.177803      -28.060453
 H         -34.430298      -92.263565      -26.785631
 H         -34.461376      -92.069038      -28.407057
 H         -31.922352      -89.293182      -28.418812
 H         -33.041485      -90.067940      -29.546402
 H         -35.675152      -90.496964      -26.288231
 H         -36.338184      -91.133705      -27.698339
 H         -34.084114      -87.969437      -29.172462
 H         -33.732323      -88.016365      -27.556179
 H         -36.009136      -88.322487      -27.564226
 H         -36.022789      -89.128830      -29.072409
