20
 generated by VMD
 C         -57.663967     -162.046494      -56.201225
 N         -57.165127     -162.120224      -57.202324
 H         -59.513557     -164.803497      -55.323689
 H         -58.138218     -161.938934      -55.250988
 C         -60.477337     -164.326187      -54.913017
 C         -60.777306     -164.303146      -53.409424
 C         -61.743378     -164.618851      -55.713623
 C         -61.788013     -163.257095      -52.921154
 C         -62.848923     -163.678085      -55.404545
 C         -63.049320     -163.392944      -53.835049
 H         -59.871342     -164.231567      -52.827328
 H         -61.190613     -165.189026      -53.103485
 H         -61.558651     -164.542633      -56.780949
 H         -62.025784     -165.727371      -55.536991
 H         -61.352039     -162.266479      -53.048420
 H         -62.025875     -163.226837      -51.846523
 H         -63.749012     -164.228958      -55.711361
 H         -62.728004     -162.829773      -55.991817
 H         -63.729935     -162.631683      -53.839050
 H         -63.599331     -164.250397      -53.533550
