20
 generated by VMD
 C         -12.361308      -27.060274       -2.684162
 N         -12.982284      -27.746279       -2.076341
 H         -10.573170      -26.782473       -4.334339
 H          -9.221429      -26.127085       -5.255496
 C          -9.485059      -26.791849       -4.406906
 C          -9.007125      -28.233665       -4.370164
 C          -8.830973      -26.178968       -3.093573
 C          -7.500748      -28.242256       -4.572825
 C          -7.322128      -26.184896       -3.204332
 C          -6.832717      -27.663738       -3.322892
 H          -9.581578      -28.736521       -5.244783
 H          -9.304384      -28.896551       -3.575178
 H          -9.143587      -25.123226       -3.124846
 H          -9.296227      -26.615763       -2.218350
 H          -7.156957      -27.814861       -5.494123
 H          -7.146905      -29.280815       -4.703719
 H          -6.891727      -25.716421       -2.310354
 H          -6.914268      -25.552456       -4.058135
 H          -5.721431      -27.643806       -3.418497
 H          -7.071528      -28.178543       -2.410522
