20
 generated by VMD
 C         -56.666348     -149.975601      -47.789948
 N         -57.587177     -150.451675      -48.219868
 H         -53.574917     -148.448135      -47.291771
 H         -55.782898     -149.652664      -47.288494
 C         -53.878437     -148.329147      -48.371731
 C         -53.284233     -148.858658      -49.556442
 C         -54.664303     -147.028854      -48.551613
 C         -54.196178     -148.985336      -50.786179
 C         -55.585175     -147.096954      -49.828663
 C         -54.863625     -147.600296      -50.981007
 H         -52.707909     -149.835632      -49.596107
 H         -52.410114     -148.207413      -49.731655
 H         -55.307018     -146.959534      -47.644802
 H         -53.914940     -146.105194      -48.511654
 H         -54.793003     -149.911469      -50.793674
 H         -53.616730     -148.990067      -51.715073
 H         -55.985691     -146.120392      -50.061928
 H         -56.589958     -147.714035      -49.521030
 H         -55.427349     -147.566345      -51.924416
 H         -53.953835     -146.900681      -51.136490
