20
 generated by VMD
 C         -26.054907      -71.865829      -17.314075
 N         -26.712364      -72.548424      -16.647123
 H         -24.432467      -69.327240      -18.680279
 H         -25.459122      -71.157166      -17.926626
 C         -24.857826      -69.697159      -19.624073
 C         -24.027630      -70.724960      -20.329556
 C         -25.728876      -68.740715      -20.495522
 C         -25.083469      -71.712059      -21.143578
 C         -26.707310      -69.598045      -21.227892
 C         -26.092443      -70.787964      -22.049351
 H         -23.394419      -71.328941      -19.708584
 H         -23.477205      -70.365448      -21.182955
 H         -26.284925      -68.075958      -19.826586
 H         -25.070551      -68.168732      -21.251951
 H         -25.515562      -72.220551      -20.288946
 H         -24.585535      -72.475731      -21.680548
 H         -27.357244      -69.092468      -22.004351
 H         -27.422714      -70.092041      -20.466827
 H         -26.798445      -71.436134      -22.508125
 H         -25.565680      -70.231468      -22.806938
