20
 generated by VMD
 C         -59.217400     -158.715271      -57.344841
 N         -58.650265     -158.180313      -58.256554
 H         -59.745354     -158.911636      -53.820259
 H         -59.780430     -159.215546      -56.535641
 C         -59.613014     -159.947540      -53.469597
 C         -58.400494     -160.134766      -52.664543
 C         -60.604202     -161.035980      -53.596565
 C         -58.917091     -160.613953      -51.273987
 C         -61.014214     -161.791748      -52.250740
 C         -59.729767     -161.873901      -51.302204
 H         -57.900921     -159.147339      -52.455978
 H         -57.849316     -160.742523      -53.317394
 H         -61.589188     -160.703369      -53.974724
 H         -60.167023     -161.680557      -54.439072
 H         -59.554409     -159.847260      -50.746704
 H         -58.108223     -160.803589      -50.673439
 H         -61.296581     -162.856079      -52.498070
 H         -61.860943     -161.238983      -51.773270
 H         -60.028034     -162.207870      -50.311008
 H         -59.130360     -162.646057      -51.634911
