20
 generated by VMD
 C         -72.647957     -199.262527      -65.421402
 N         -71.777718     -199.634399      -64.735199
 H         -71.180527     -196.061584      -67.174873
 H         -73.582153     -199.096939      -65.924004
 C         -72.111076     -195.720657      -67.622131
 C         -72.768921     -194.469940      -67.226593
 C         -72.674950     -196.391495      -68.792923
 C         -74.155876     -194.210236      -67.901672
 C         -74.193130     -196.487106      -68.944923
 C         -74.943542     -195.459869      -68.211304
 H         -72.151871     -193.573898      -67.216873
 H         -72.828239     -194.692337      -66.064941
 H         -72.337288     -195.978134      -69.684746
 H         -72.226387     -197.327225      -68.765602
 H         -73.930916     -193.651199      -68.850929
 H         -74.755394     -193.485992      -67.344048
 H         -74.584007     -197.418686      -68.582214
 H         -74.498337     -196.471405      -70.028671
 H         -75.873497     -195.175766      -68.591904
 H         -75.445419     -195.908173      -67.275871
