20
 generated by VMD
 C         -73.515182     -200.202515      -65.757637
 N         -73.628860     -200.955856      -64.877403
 H         -71.755341     -197.066315      -66.789864
 H         -73.382492     -199.354401      -66.341599
 C         -72.464951     -196.767639      -67.529076
 C         -73.392540     -195.677368      -67.215034
 C         -72.447906     -197.085297      -68.978867
 C         -74.205803     -195.058670      -68.382301
 C         -73.884079     -197.389786      -69.440857
 C         -74.721039     -196.121124      -69.447983
 H         -72.868698     -194.827225      -66.706451
 H         -74.127388     -196.012115      -66.502365
 H         -72.028183     -196.233353      -69.595306
 H         -71.784294     -197.957565      -69.335999
 H         -73.385315     -194.535263      -68.923882
 H         -74.988998     -194.360275      -68.126945
 H         -74.357391     -197.956955      -68.654030
 H         -73.917122     -197.967056      -70.448700
 H         -74.734444     -195.623672      -70.352081
 H         -75.691795     -196.377258      -69.255745
