20
 generated by VMD
 C         -29.836210      -89.650925      -25.563519
 N         -29.192360      -90.598785      -25.776642
 H         -32.178806      -91.683174      -27.478922
 H         -30.348557      -88.663422      -25.462191
 C         -32.926220      -90.895065      -27.432524
 C         -34.325333      -91.296982      -27.211954
 C         -32.629509      -89.640343      -28.197330
 C         -35.429989      -90.234650      -27.180309
 C         -33.706535      -88.542534      -27.851828
 C         -35.119827      -88.933212      -27.987371
 H         -34.364075      -91.877571      -26.292252
 H         -34.474495      -92.134026      -27.900822
 H         -31.587801      -89.269501      -28.062740
 H         -32.768581      -89.696838      -29.290594
 H         -35.599442      -89.925568      -26.073370
 H         -36.409451      -90.597542      -27.587234
 H         -33.500858      -87.627174      -28.401159
 H         -33.597965      -88.196747      -26.784267
 H         -35.859894      -88.279236      -27.481310
 H         -35.647285      -89.043839      -29.018368
