20
 generated by VMD
 C         -23.336132      -53.282768      -13.892727
 N         -23.971518      -53.025719      -14.833973
 H         -20.751020      -55.352707      -14.807372
 H         -22.668804      -53.333771      -12.864739
 C         -19.628027      -55.370632      -14.307754
 C         -19.092327      -53.979618      -13.845803
 C         -18.608763      -56.388577      -14.675054
 C         -18.078217      -54.064861      -12.691096
 C         -17.479856      -56.430767      -13.650774
 C         -17.028889      -55.105324      -12.979841
 H         -20.039961      -53.390049      -13.573373
 H         -18.551996      -53.538235      -14.773422
 H         -19.100769      -57.357727      -14.647903
 H         -18.301697      -56.221611      -15.774515
 H         -18.586222      -54.245689      -11.725941
 H         -17.458057      -53.165752      -12.544048
 H         -16.618565      -56.865452      -14.098478
 H         -17.752077      -57.119751      -12.791826
 H         -16.475374      -55.270828      -12.082892
 H         -16.274410      -54.660564      -13.584794
