20
 generated by VMD
 C         -38.351234     -112.888924      -36.293285
 N         -37.251820     -112.555161      -36.489376
 H         -41.319592     -114.821266      -34.750584
 H         -39.459358     -112.970512      -36.125488
 C         -42.167690     -114.679024      -35.331383
 C         -42.098507     -114.747162      -36.889141
 C         -43.402641     -113.985878      -34.806889
 C         -43.422695     -114.913086      -37.564701
 C         -44.718868     -114.401733      -35.564903
 C         -44.463322     -113.963638      -37.001041
 H         -41.468498     -115.644936      -37.073635
 H         -41.655167     -113.764503      -37.077072
 H         -43.695263     -114.406197      -33.830498
 H         -43.199642     -112.885330      -34.759571
 H         -43.791935     -115.896126      -37.605740
 H         -43.303932     -114.483078      -38.569992
 H         -45.603420     -113.978523      -35.165703
 H         -44.929867     -115.414848      -35.415962
 H         -45.455349     -113.986130      -37.495022
 H         -44.128139     -112.895294      -37.149956
