20
 generated by VMD
 C         -50.937714     -130.862930      -45.986645
 N         -50.446857     -130.064484      -46.709473
 H         -47.836327     -132.274750      -44.554947
 H         -51.653465     -131.617096      -45.696072
 C         -48.154789     -132.358139      -43.476997
 C         -48.472870     -133.679764      -42.921925
 C         -48.164352     -131.117599      -42.522305
 C         -48.204464     -133.914185      -41.448742
 C         -47.874596     -131.534775      -41.073689
 C         -48.584911     -132.758453      -40.578781
 H         -47.942749     -134.410049      -43.592747
 H         -49.540100     -133.754349      -43.017334
 H         -47.336601     -130.517670      -42.991631
 H         -49.134365     -130.649368      -42.483570
 H         -47.136677     -134.113998      -41.357395
 H         -48.793110     -134.810684      -41.248280
 H         -48.029831     -130.739761      -40.386909
 H         -46.779469     -131.646881      -41.136539
 H         -48.308357     -132.847916      -39.513245
 H         -49.681419     -132.717148      -40.638405
