20
 generated by VMD
 C         -20.272560      -52.213600       -9.815999
 N         -21.052525      -51.503372      -10.203256
 H         -18.395760      -49.258091      -10.588478
 H         -19.244316      -52.809666       -9.780561
 C         -17.614429      -49.362766      -11.357895
 C         -16.898958      -50.606300      -11.791304
 C         -17.240944      -48.197750      -12.261567
 C         -16.864044      -50.818588      -13.316578
 C         -16.962715      -48.397068      -13.804460
 C         -16.217171      -49.653915      -14.047732
 H         -17.320993      -51.470936      -11.330846
 H         -15.900769      -50.546833      -11.317864
 H         -18.106445      -47.530643      -12.211614
 H         -16.392899      -47.670849      -11.852830
 H         -17.923594      -50.954659      -13.663101
 H         -16.379215      -51.797707      -13.545862
 H         -16.340672      -47.449707      -14.142354
 H         -17.885332      -48.459991      -14.351571
 H         -16.114649      -49.868729      -15.137416
 H         -15.177188      -49.583546      -13.630292
