20
 generated by VMD
 C         -70.332443     -181.243698      -62.594967
 N         -70.814873     -180.198456      -62.889061
 H         -66.590286     -181.732910      -61.407341
 H         -69.887505     -182.181381      -62.223076
 C         -66.322319     -180.930206      -60.716366
 C         -64.889702     -180.688278      -60.195660
 C         -67.198929     -179.725235      -60.316345
 C         -64.247368     -179.457321      -60.745529
 C         -66.604782     -178.420807      -60.973568
 C         -65.108246     -178.209091      -60.516003
 H         -64.311615     -181.462036      -60.633091
 H         -65.058968     -180.628723      -59.121330
 H         -68.176666     -179.844635      -60.631111
 H         -67.205139     -179.454407      -59.265755
 H         -64.178116     -179.648224      -61.835415
 H         -63.247044     -179.165253      -60.485279
 H         -67.257950     -177.544693      -60.758450
 H         -66.685410     -178.658066      -62.033604
 H         -64.726601     -177.417267      -61.019901
 H         -65.235481     -177.932358      -59.459930
