20
 generated by VMD
 C         -10.821780      -37.042862       -8.169331
 N         -10.170812      -36.773312       -7.269576
 H         -12.888283      -39.105156       -8.070641
 H         -14.206976      -39.172943       -6.894099
 C         -13.865023      -39.502087       -7.836655
 C         -13.724634      -41.006538       -7.798230
 C         -14.830568      -39.101753       -8.896250
 C         -15.057014      -41.721352       -7.595960
 C         -16.178541      -39.847496       -8.861796
 C         -16.037409      -41.328644       -8.668203
 H         -13.042488      -41.281921       -7.019147
 H         -13.214799      -41.324650       -8.694701
 H         -14.984643      -38.034779       -8.803046
 H         -14.397066      -39.264256       -9.918252
 H         -15.533918      -41.533619       -6.643718
 H         -14.800484      -42.814308       -7.610510
 H         -16.738794      -39.665703       -9.729916
 H         -16.852133      -39.487804       -8.000682
 H         -16.981628      -41.738571       -8.366742
 H         -15.856486      -41.784386       -9.631098
