20
 generated by VMD
 C         -10.852958      -33.085613       -8.685489
 N         -10.860772      -33.975868       -9.326245
 H         -13.089529      -34.027988       -6.323921
 H         -13.068661      -34.941139       -4.847602
 C         -12.967609      -35.081467       -5.930911
 C         -11.648502      -35.791233       -6.186123
 C         -14.181079      -35.842880       -6.481833
 C         -11.759431      -37.200207       -5.549785
 C         -14.247102      -37.187107       -5.796098
 C         -12.975362      -37.992645       -6.064658
 H         -10.821022      -35.287373       -5.668224
 H         -11.398463      -35.857533       -7.257488
 H         -15.079167      -35.374229       -6.161644
 H         -14.150012      -35.979931       -7.592343
 H         -11.711311      -37.049355       -4.508885
 H         -10.809071      -37.712643       -5.754037
 H         -15.150076      -37.734829       -6.162487
 H         -14.411716      -37.056286       -4.699696
 H         -13.130713      -38.926704       -5.493386
 H         -12.913300      -38.199596       -7.174797
