20
 generated by VMD
 C         -12.252242      -32.104351       -8.596963
 N         -12.819184      -31.506598       -9.320776
 H         -10.463100      -34.399548       -7.052668
 H         -11.341445      -33.639458       -5.838534
 C         -11.110552      -34.611988       -6.251193
 C         -10.388990      -35.553322       -5.241079
 C         -12.368147      -35.261570       -6.784919
 C         -11.368122      -35.947002       -4.084610
 C         -13.329217      -35.575008       -5.677063
 C         -12.708552      -36.573822       -4.679939
 H          -9.450188      -35.070614       -4.835846
 H          -9.974761      -36.394276       -5.794892
 H         -12.963422      -34.707687       -7.508110
 H         -12.102747      -36.167854       -7.367223
 H         -11.582063      -35.179897       -3.341995
 H         -10.865124      -36.673218       -3.390007
 H         -14.233699      -36.064400       -6.077198
 H         -13.762571      -34.674747       -5.235827
 H         -13.455008      -36.686607       -3.807767
 H         -12.544949      -37.562172       -5.152643
