20
 generated by VMD
 C         -48.049713     -125.078842      -38.800468
 N         -47.177425     -125.860451      -38.665062
 H         -45.256622     -122.793312      -37.672821
 H         -48.746391     -124.221191      -38.633553
 C         -45.123615     -122.891899      -38.798271
 C         -44.172180     -123.927643      -39.384583
 C         -45.670010     -121.831833      -39.634777
 C         -44.448551     -124.367882      -40.903271
 C         -46.007278     -122.316803      -41.130783
 C         -44.841686     -123.068474      -41.654503
 H         -44.275215     -124.859184      -38.747131
 H         -43.140144     -123.483742      -39.154823
 H         -46.564503     -121.284264      -39.205154
 H         -44.815063     -121.074532      -39.649567
 H         -45.266411     -125.095253      -40.878029
 H         -43.420799     -124.625908      -41.243816
 H         -46.125423     -121.419174      -41.668179
 H         -46.779961     -123.017502      -41.112053
 H         -45.156670     -123.444130      -42.685684
 H         -43.969444     -122.386856      -41.805225
