20
 generated by VMD
 C         -60.159321     -156.230133      -55.224743
 N         -60.460335     -155.138885      -55.454758
 H         -59.993748     -157.479614      -52.028381
 H         -59.861500     -157.289474      -55.194847
 C         -58.884865     -157.525711      -52.108173
 C         -58.248344     -156.177795      -52.169434
 C         -57.999382     -158.730972      -51.881176
 C         -57.167160     -155.902771      -51.180504
 C         -57.007225     -158.443726      -50.698612
 C         -56.205589     -157.112335      -51.046570
 H         -59.114563     -155.562088      -52.108944
 H         -57.801487     -156.046997      -53.216084
 H         -58.675800     -159.534317      -51.685886
 H         -57.552406     -158.984146      -52.885563
 H         -57.797562     -155.593506      -50.309864
 H         -56.562183     -155.102646      -51.599400
 H         -56.309566     -159.269196      -50.542839
 H         -57.809494     -158.370636      -49.820324
 H         -55.437489     -156.939499      -50.223423
 H         -55.717239     -157.284576      -51.983044
