20
 generated by VMD
 C         -70.261368     -182.974289      -64.295967
 N         -70.205223     -183.484375      -65.340416
 H         -68.684349     -180.336884      -62.390560
 H         -70.354866     -182.528214      -63.343811
 C         -67.809677     -180.610657      -61.875214
 C         -67.787178     -182.082672      -61.278572
 C         -66.921989     -179.618622      -61.062283
 C         -66.472633     -182.559296      -60.686001
 C         -65.667068     -180.253906      -60.384575
 C         -65.805023     -181.627853      -59.713387
 H         -68.035698     -182.744659      -62.131748
 H         -68.614685     -182.226700      -60.379734
 H         -66.628006     -178.795624      -61.618717
 H         -67.551910     -179.078583      -60.298283
 H         -65.772621     -182.809036      -61.359402
 H         -66.591476     -183.561859      -60.292767
 H         -65.377075     -179.475113      -59.681885
 H         -64.784943     -180.288071      -61.069691
 H         -64.861267     -181.923889      -59.319607
 H         -66.485252     -181.500259      -58.735668
