20
 generated by VMD
 C         -11.401858      -33.331646       -8.586838
 N         -10.564746      -33.790962       -9.137382
 H         -12.570226      -34.386227       -6.988747
 H         -12.967350      -34.779686       -5.368502
 C         -12.784610      -35.249683       -6.332165
 C         -11.598051      -36.226929       -6.386349
 C         -14.119388      -35.939217       -6.723496
 C         -11.915390      -37.412968       -5.450262
 C         -14.402914      -37.158600       -5.880729
 C         -13.204320      -38.138161       -5.887424
 H         -10.693548      -35.708973       -5.997366
 H         -11.345126      -36.623295       -7.397982
 H         -14.954808      -35.272259       -6.634886
 H         -13.993155      -36.344124       -7.773668
 H         -12.010600      -37.125050       -4.390554
 H         -11.049627      -38.152000       -5.479272
 H         -15.217417      -37.699638       -6.392073
 H         -14.724048      -36.866997       -4.818391
 H         -13.372314      -38.952835       -5.164962
 H         -13.130512      -38.544708       -6.924789
