20
 generated by VMD
 C         -22.434057      -52.226871      -11.648285
 N         -22.231615      -52.738899      -10.561701
 H         -19.938757      -52.409992      -14.275510
 H         -22.962673      -52.007275      -12.480143
 C         -18.945015      -52.342781      -13.944381
 C         -17.924374      -51.723866      -14.869521
 C         -18.539660      -52.696583      -12.545506
 C         -16.465031      -52.134239      -14.522723
 C         -17.180559      -52.077259      -12.125436
 C         -15.983310      -52.173759      -13.089303
 H         -17.938511      -50.590122      -14.737461
 H         -18.219992      -51.858166      -15.888035
 H         -19.274740      -52.290440      -11.849121
 H         -18.553276      -53.828259      -12.366302
 H         -15.854586      -51.467415      -15.123383
 H         -16.411129      -53.125820      -14.928400
 H         -16.889481      -52.546532      -11.124360
 H         -17.335928      -51.066978      -11.898074
 H         -15.434510      -51.230442      -13.006843
 H         -15.358881      -53.039787      -12.887074
