20
 generated by VMD
 C         -33.707432      -96.898186      -26.073454
 N         -34.845730      -96.781761      -25.967531
 H         -35.103413      -94.375671      -27.328482
 H         -32.557838      -97.054581      -26.135262
 C         -35.091541      -94.133873      -28.379475
 C         -36.003342      -94.767944      -29.416826
 C         -33.694786      -93.730652      -28.940916
 C         -36.004040      -94.074753      -30.819595
 C         -33.731892      -93.079132      -30.292837
 C         -34.633446      -93.817162      -31.319607
 H         -36.996414      -94.698959      -28.990774
 H         -35.759853      -95.873039      -29.552313
 H         -33.290985      -93.041115      -28.173119
 H         -32.972725      -94.653168      -29.027010
 H         -36.568592      -93.143921      -30.680058
 H         -36.618038      -94.768532      -31.445240
 H         -32.810829      -92.986580      -30.804605
 H         -34.109447      -92.026825      -30.159512
 H         -34.726212      -93.302078      -32.222591
 H         -34.129444      -94.834076      -31.666803
