20
 generated by VMD
 C         -77.886948     -203.217804      -69.602310
 N         -78.354691     -204.141800      -69.030853
 H         -75.148201     -201.968430      -67.121223
 H         -77.494507     -202.459122      -70.224243
 C         -74.959770     -201.610352      -68.162735
 C         -75.000252     -200.189407      -68.563438
 C         -73.864540     -202.421112      -68.810585
 C         -74.712624     -199.940689      -69.998100
 C         -73.023689     -201.643570      -69.898033
 C         -73.938683     -200.901749      -70.860336
 H         -74.261360     -199.630356      -67.996140
 H         -76.030418     -199.817215      -68.238358
 H         -73.176407     -202.799820      -68.023705
 H         -74.291275     -203.265182      -69.291382
 H         -74.290939     -198.903381      -70.090538
 H         -75.677078     -199.765854      -70.419434
 H         -72.435722     -202.307632      -70.576431
 H         -72.165237     -201.098358      -69.404472
 H         -73.544922     -200.402863      -71.719452
 H         -74.772812     -201.619843      -71.354118
