20
 generated by VMD
 C         -63.191101     -174.396606      -56.792053
 N         -62.516735     -175.055496      -56.149784
 H         -66.575111     -173.075760      -58.395149
 H         -64.000877     -173.829544      -57.222694
 C         -65.619118     -172.452530      -58.590717
 C         -65.718895     -171.043640      -58.263409
 C         -64.735023     -172.914795      -59.672081
 C         -64.340210     -170.341278      -58.143204
 C         -63.271458     -172.421478      -59.405807
 C         -63.329006     -170.811035      -59.229126
 H         -66.161850     -170.881927      -57.289650
 H         -66.365051     -170.480011      -58.992577
 H         -64.792511     -174.029099      -59.776665
 H         -65.048164     -172.384018      -60.580479
 H         -64.018158     -170.479111      -57.024094
 H         -64.592140     -169.214813      -58.237625
 H         -62.722309     -172.737839      -60.285927
 H         -62.818359     -172.813232      -58.458694
 H         -62.322735     -170.396332      -59.071686
 H         -63.761139     -170.438522      -60.205013
