20
 generated by VMD
 C         -13.444582      -28.179991       -3.673199
 N         -14.002402      -27.374191       -4.185191
 H         -10.425192      -28.937199       -2.759025
 H         -10.055723      -27.480320       -3.807233
 C          -9.667231      -28.368099       -3.304492
 C          -9.137064      -29.449326       -4.286108
 C          -8.555910      -27.843359       -2.387700
 C          -8.079341      -28.796545       -5.190525
 C          -7.415243      -27.285219       -3.254855
 C          -6.950286      -28.236788       -4.358370
 H         -10.043183      -29.834381       -4.832321
 H          -8.697776      -30.242168       -3.718852
 H          -8.963959      -27.003519       -1.854284
 H          -8.190125      -28.679583       -1.771068
 H          -8.586946      -28.023077       -5.834906
 H          -7.589924      -29.517855       -5.881360
 H          -6.560623      -27.097750       -2.546452
 H          -7.715946      -26.363323       -3.701372
 H          -6.224118      -27.682117       -4.911596
 H          -6.316310      -29.043671       -3.930342
