20
 generated by VMD
 C         -59.498211     -158.239594      -57.363758
 N         -58.410564     -158.523529      -57.789364
 H         -60.319748     -158.294189      -53.468998
 H         -60.459301     -157.923782      -56.933289
 C         -60.015617     -159.128601      -52.830177
 C         -58.569321     -159.262329      -52.481731
 C         -60.684017     -160.441238      -53.158001
 C         -58.444725     -160.193756      -51.352612
 C         -60.429901     -161.606979      -52.170940
 C         -58.966160     -161.663574      -51.709900
 H         -58.353432     -158.281006      -52.149853
 H         -57.939735     -159.656189      -53.319515
 H         -61.768341     -160.137497      -53.427761
 H         -60.275455     -160.860733      -54.121014
 H         -58.861904     -159.859802      -50.410965
 H         -57.328133     -160.163940      -50.973961
 H         -60.846313     -162.554291      -52.573006
 H         -61.021946     -161.337448      -51.222527
 H         -58.755920     -162.354401      -50.905552
 H         -58.269432     -162.186935      -52.409286
