20
 generated by VMD
 C         -29.406986      -87.965332      -24.963816
 N         -28.879614      -88.177467      -26.001471
 H         -31.336657      -89.033607      -27.421700
 H         -29.910473      -87.925735      -24.026516
 C         -32.306206      -89.485954      -27.250050
 C         -32.832386      -89.462593      -25.937687
 C         -33.362595      -89.332184      -28.361395
 C         -33.409252      -88.123489      -25.735662
 C         -34.119621      -88.058434      -28.162865
 C         -34.647129      -87.960686      -26.681007
 H         -32.061619      -89.607162      -25.206446
 H         -33.563606      -90.248550      -25.731520
 H         -32.731186      -89.516617      -29.180298
 H         -34.049526      -90.171318      -28.176920
 H         -32.733276      -87.252838      -26.003416
 H         -33.804585      -87.967064      -24.687557
 H         -34.962795      -88.105057      -28.850859
 H         -33.503174      -87.188454      -28.316151
 H         -35.258911      -87.111923      -26.565481
 H         -35.386719      -88.727180      -26.491001
