20
 generated by VMD
 C         -78.334236     -209.822815      -77.174332
 N         -78.932472     -208.817429      -77.259491
 H         -78.384018     -210.858856      -73.840042
 H         -77.748421     -210.676147      -77.173798
 C         -78.688057     -211.395020      -72.936829
 C         -77.618423     -211.628723      -71.943237
 C         -79.885941     -212.299927      -72.958740
 C         -78.061081     -212.175003      -70.490341
 C         -80.362732     -212.714050      -71.547005
 C         -79.212906     -213.150406      -70.580261
 H         -77.066704     -210.691513      -71.936508
 H         -76.886040     -212.332550      -72.395279
 H         -80.702843     -211.660370      -73.395111
 H         -79.649948     -213.127625      -73.576111
 H         -78.293053     -211.307053      -69.930061
 H         -77.283127     -212.697998      -69.909019
 H         -81.204178     -213.349304      -71.583969
 H         -80.933258     -211.784195      -71.158142
 H         -79.755951     -213.204224      -69.664978
 H         -78.865173     -214.203903      -70.608170
