20
 generated by VMD
 C         -11.044610      -32.965019       -8.704422
 N         -11.779924      -33.144009       -9.491553
 H         -12.261292      -33.629341       -6.275836
 H         -12.647638      -34.351933       -4.773522
 C         -12.453382      -34.608212       -5.803509
 C         -11.213569      -35.502533       -5.791728
 C         -13.718049      -35.349033       -6.313419
 C         -11.498732      -36.804737       -5.124891
 C         -13.915107      -36.761379       -5.671223
 C         -12.605021      -37.584934       -5.830745
 H         -10.486347      -35.032528       -5.145444
 H         -10.760456      -35.547005       -6.775597
 H         -14.607832      -34.746147       -6.129960
 H         -13.743557      -35.518635       -7.440494
 H         -11.783280      -36.616699       -4.091167
 H         -10.539536      -37.370621       -5.101388
 H         -14.722930      -37.339020       -6.246321
 H         -14.247445      -36.661999       -4.663648
 H         -12.754057      -38.453854       -5.228008
 H         -12.444074      -37.917679       -6.847993
