20
 generated by VMD
 C         -11.218336      -32.603214       -8.810039
 N         -11.998642      -32.931915       -9.562274
 H         -12.019134      -33.786861       -6.405992
 H         -12.558760      -34.228054       -4.861998
 C         -12.295253      -34.655270       -5.829917
 C         -11.087373      -35.567375       -5.576030
 C         -13.490012      -35.267086       -6.491642
 C         -11.412386      -36.883327       -4.975410
 C         -13.849848      -36.531902       -5.665837
 C         -12.638815      -37.487160       -5.542237
 H         -10.305579      -35.081799       -4.980232
 H         -10.611706      -35.647678       -6.522691
 H         -14.370960      -34.616100       -6.585304
 H         -13.178026      -35.515030       -7.551636
 H         -11.620296      -36.703629       -3.916964
 H         -10.536037      -37.573135       -4.925376
 H         -14.733235      -37.060394       -6.026239
 H         -14.127352      -36.152424       -4.652149
 H         -12.962886      -38.377014       -4.963874
 H         -12.398744      -37.791824       -6.528925
