20
 generated by VMD
 C         -11.885425      -31.647675       -9.019084
 N         -12.579725      -32.284504       -9.660875
 H         -10.768190      -34.246513       -6.716225
 H         -11.833030      -33.883450       -5.250528
 C         -11.493655      -34.668568       -5.937506
 C         -10.690187      -35.813648       -5.255760
 C         -12.716834      -35.281891       -6.709848
 C         -11.482522      -36.660374       -4.299952
 C         -13.593356      -36.012909       -5.688780
 C         -12.781461      -37.077763       -4.990300
 H          -9.900170      -35.260956       -4.769388
 H         -10.168147      -36.390877       -6.025177
 H         -13.230924      -34.394382       -7.085329
 H         -12.463816      -35.982079       -7.544772
 H         -11.706861      -36.177559       -3.380633
 H         -10.909322      -37.562698       -4.110866
 H         -14.467807      -36.505924       -6.229480
 H         -13.967301      -35.359356       -4.970379
 H         -13.381718      -37.710773       -4.314573
 H         -12.484830      -37.789845       -5.824738
