20
 generated by VMD
 C         -11.274520      -33.820980       -9.338482
 N         -11.322886      -34.048119       -8.224127
 H         -11.470589      -37.422729       -8.069471
 H         -12.154235      -36.625519       -6.613069
 C         -12.259462      -37.526428       -7.279843
 C         -12.191627      -38.888004       -6.594155
 C         -13.627340      -37.176037       -7.953672
 C         -13.308240      -38.955261       -5.499302
 C         -14.802131      -37.424942       -6.959885
 C         -14.675708      -38.773228       -6.145303
 H         -11.265991      -38.909691       -6.016978
 H         -12.235061      -39.691799       -7.350165
 H         -13.503715      -36.080097       -8.264208
 H         -13.731784      -37.836002       -8.830233
 H         -13.202669      -38.185360       -4.709299
 H         -13.214982      -39.976734       -5.070106
 H         -15.806791      -37.448982       -7.530790
 H         -14.934857      -36.643795       -6.224537
 H         -15.375731      -38.762428       -5.316719
 H         -14.984536      -39.623501       -6.791164
