20
 generated by VMD
 C         -28.525511      -86.743172      -26.861427
 N         -27.553192      -87.166168      -26.425797
 H         -31.028677      -88.525536      -25.183147
 H         -29.457165      -86.423584      -27.187263
 C         -31.934481      -88.061302      -25.599760
 C         -33.098026      -88.066872      -24.629995
 C         -32.206093      -87.932693      -27.108725
 C         -34.543751      -87.683655      -25.307646
 C         -33.534260      -87.415024      -27.533382
 C         -34.710819      -88.007805      -26.764788
 H         -32.852333      -87.640923      -23.730213
 H         -33.339790      -89.059235      -24.287251
 H         -31.466955      -87.371597      -27.639874
 H         -32.191647      -88.991272      -27.486683
 H         -34.660572      -86.536652      -25.287722
 H         -35.407932      -88.132568      -24.790770
 H         -33.614632      -87.777313      -28.612576
 H         -33.658340      -86.373314      -27.453947
 H         -35.516098      -87.596115      -27.303833
 H         -34.735497      -89.017479      -26.946323
