20
 generated by VMD
 C         -68.280136     -193.698105      -65.559380
 N         -68.118813     -194.807693      -65.161613
 H         -71.068909     -191.977203      -67.834862
 H         -68.100380     -192.736099      -65.932716
 C         -71.594147     -192.048691      -66.896019
 C         -72.014854     -190.682953      -66.326828
 C         -72.278748     -193.283142      -66.371323
 C         -73.599426     -190.637589      -66.147575
 C         -73.134872     -192.947983      -65.097252
 C         -74.202438     -191.882309      -65.481010
 H         -71.721001     -189.869781      -67.151474
 H         -71.562630     -190.451721      -65.393547
 H         -72.943428     -193.713242      -67.155563
 H         -71.414261     -193.867325      -66.185020
 H         -74.065147     -190.663406      -67.146271
 H         -74.152969     -189.796570      -65.706230
 H         -72.517693     -192.676941      -64.247368
 H         -73.705536     -193.900177      -64.797318
 H         -75.024902     -192.368561      -66.144447
 H         -74.673759     -191.585281      -64.629082
