20
 generated by VMD
 C         -68.960938     -180.607605      -62.539837
 N         -70.011711     -180.437988      -62.121475
 H         -66.801407     -181.094376      -59.392799
 H         -68.001129     -180.699661      -63.003868
 C         -66.370903     -180.146393      -59.841003
 C         -65.191872     -180.214249      -60.795876
 C         -66.833839     -178.766525      -59.323895
 C         -65.005417     -179.007355      -61.621593
 C         -66.381599     -177.550079      -60.125973
 C         -65.077301     -177.704071      -60.821400
 H         -65.244789     -181.090012      -61.444386
 H         -64.258720     -180.259598      -60.145855
 H         -67.924156     -178.810532      -59.360981
 H         -66.537720     -178.474945      -58.250195
 H         -65.701111     -178.998810      -62.433300
 H         -64.066551     -179.202393      -62.118023
 H         -66.366158     -176.684555      -59.426765
 H         -67.140526     -177.424088      -60.894665
 H         -65.120934     -176.969254      -61.736282
 H         -64.076950     -177.563980      -60.146942
