20
 generated by VMD
 C         -78.700974     -209.023026      -77.130005
 N         -79.622360     -208.554001      -76.577095
 H         -78.333702     -209.193405      -73.225533
 H         -77.735756     -209.438828      -77.567154
 C         -78.232513     -209.837692      -72.358231
 C         -77.086472     -209.791183      -71.464546
 C         -79.133553     -211.081726      -72.259682
 C         -77.083229     -210.465118      -70.113510
 C         -79.416916     -211.453094      -70.881516
 C         -78.086159     -211.665649      -70.243988
 H         -76.755989     -208.781174      -71.394966
 H         -76.238228     -210.152451      -72.073540
 H         -80.036324     -210.808487      -72.859352
 H         -78.684570     -211.929993      -72.712692
 H         -77.529572     -209.815399      -69.365959
 H         -76.104904     -210.704193      -69.696480
 H         -80.129288     -212.381760      -70.802612
 H         -79.928474     -210.613037      -70.599022
 H         -78.286102     -211.902557      -69.172096
 H         -77.658806     -212.611343      -70.640274
