20
 generated by VMD
 C         -31.048664      -75.650314      -21.528879
 N         -32.035110      -75.222549      -21.110064
 H         -27.852039      -74.705887      -20.385069
 H         -30.071730      -76.012955      -21.475954
 C         -26.809277      -75.012131      -20.491423
 C         -26.483881      -76.152061      -21.303034
 C         -25.822828      -73.906487      -20.386372
 C         -25.983383      -75.713562      -22.649590
 C         -25.322021      -73.466881      -21.755941
 C         -24.924429      -74.675781      -22.675684
 H         -27.255379      -76.779900      -21.460135
 H         -25.712553      -76.688744      -20.764484
 H         -26.255915      -72.950920      -19.754557
 H         -24.982086      -74.353149      -19.825562
 H         -26.875059      -75.383682      -23.213198
 H         -25.660097      -76.617958      -23.165255
 H         -24.680298      -72.562180      -21.579573
 H         -26.223150      -72.947952      -22.234917
 H         -24.728643      -74.383720      -23.734587
 H         -23.981016      -75.094307      -22.328718
