20
 generated by VMD
 C         -10.559111      -33.246880       -8.757986
 N         -11.373957      -33.623127       -9.404154
 H         -12.903101      -33.754906       -6.041077
 H         -13.139337      -34.827351       -4.661524
 C         -12.960668      -34.803520       -5.710099
 C         -11.553444      -35.431824       -5.881778
 C         -14.143532      -35.620480       -6.226233
 C         -11.512476      -36.931038       -5.502759
 C         -13.984880      -37.023033       -5.712584
 C         -12.702174      -37.702236       -6.156157
 H         -10.837025      -34.828865       -5.382022
 H         -11.383606      -35.351357       -6.939765
 H         -14.992059      -35.091450       -5.814006
 H         -14.177388      -35.658222       -7.341161
 H         -11.544216      -37.093246       -4.441669
 H         -10.577133      -37.437466       -5.820458
 H         -14.882852      -37.651093       -5.959507
 H         -13.981830      -36.979065       -4.670310
 H         -12.644430      -38.700195       -5.731352
 H         -12.622875      -37.748718       -7.269425
