20
 generated by VMD
 C         -41.519241     -101.507393      -32.635250
 N         -41.658207     -101.545761      -33.785748
 H         -38.639866     -102.992126      -32.648224
 H         -41.380127     -101.049072      -31.668770
 C         -37.739994     -102.927986      -32.073551
 C         -36.622475     -103.138794      -33.020805
 C         -37.542603     -103.291534      -30.667948
 C         -35.420895     -102.316162      -32.413460
 C         -36.248791     -102.779488      -29.975033
 C         -35.083275     -102.774368      -30.903919
 H         -36.943542     -102.768211      -34.032818
 H         -36.354313     -104.235268      -33.129124
 H         -38.319107     -102.917549      -29.983984
 H         -37.459743     -104.422356      -30.455658
 H         -35.546371     -101.300171      -32.431084
 H         -34.523918     -102.496071      -32.973835
 H         -36.203014     -103.336128      -28.964043
 H         -36.533970     -101.787079      -29.742586
 H         -34.176815     -102.256065      -30.490372
 H         -34.744022     -103.776398      -30.866934
