20
 generated by VMD
 C         -50.804771     -129.656540      -46.028481
 N         -50.895618     -130.475876      -45.177120
 H         -48.244205     -131.373550      -44.186279
 H         -50.746765     -128.709396      -46.624058
 C         -47.975014     -131.412598      -43.182228
 C         -48.329735     -132.670212      -42.432404
 C         -47.982605     -130.149078      -42.450485
 C         -47.472103     -132.818848      -41.166679
 C         -47.097290     -130.207291      -41.145191
 C         -47.449818     -131.522263      -40.290539
 H         -48.230564     -133.546249      -43.176880
 H         -49.391850     -132.770950      -42.071198
 H         -47.553574     -129.393875      -43.174843
 H         -49.142769     -129.941757      -42.303688
 H         -46.557690     -133.232986      -41.535671
 H         -47.950054     -133.596664      -40.555130
 H         -47.282188     -129.241409      -40.533718
 H         -46.006508     -130.279068      -41.404789
 H         -46.786457     -131.450974      -39.463566
 H         -48.460812     -131.298294      -39.866753
