20
 generated by VMD
 C         -70.416237     -197.072647      -66.170624
 N         -69.853661     -196.145370      -65.770691
 H         -72.086952     -194.611893      -64.798225
 H         -71.085762     -197.878983      -66.567879
 C         -72.554443     -194.252502      -65.697701
 C         -72.548935     -192.835648      -66.091606
 C         -73.541878     -195.286652      -66.300087
 C         -73.555145     -192.536758      -67.183716
 C         -73.800056     -194.986755      -67.770836
 C         -73.364899     -193.565948      -68.275551
 H         -71.573677     -192.668182      -66.457138
 H         -72.740105     -192.295258      -65.161522
 H         -73.033722     -196.233322      -66.328171
 H         -74.562088     -195.269577      -65.837173
 H         -73.496887     -191.493790      -67.507774
 H         -74.586472     -192.668945      -66.792671
 H         -74.898895     -195.014999      -67.854065
 H         -73.390282     -195.784637      -68.435844
 H         -72.266296     -193.740494      -68.671028
 H         -73.950897     -193.351013      -69.072830
