20
 generated by VMD
 C         -47.460606     -139.235840      -45.749313
 N         -46.761639     -138.752274      -46.487389
 H         -50.845924     -138.815948      -44.571510
 H         -48.140099     -139.803558      -45.136295
 C         -51.783379     -138.907669      -45.104549
 C         -51.817326     -139.287857      -46.678562
 C         -53.051922     -138.497040      -44.457405
 C         -52.999565     -140.211060      -46.926903
 C         -54.080307     -139.618423      -44.710083
 C         -54.341839     -139.804504      -46.252705
 H         -50.879444     -139.601288      -47.021168
 H         -52.003933     -138.392365      -47.250595
 H         -52.949478     -138.460754      -43.307304
 H         -53.341316     -137.428940      -44.752899
 H         -52.882217     -141.129181      -46.472183
 H         -53.153641     -140.404892      -47.985081
 H         -55.002071     -139.343628      -44.180439
 H         -53.855305     -140.599091      -44.271004
 H         -55.148880     -140.510941      -46.520546
 H         -54.908764     -138.760788      -46.668552
