20
 generated by VMD
 C         -50.857304     -129.996750      -44.912609
 N         -51.650021     -129.227951      -45.353771
 H         -48.635365     -129.706268      -43.184856
 H         -49.941471     -130.567947      -44.687576
 C         -48.080826     -129.851624      -42.261475
 C         -47.971409     -131.223892      -41.583199
 C         -47.471355     -128.584610      -41.621723
 C         -46.501896     -131.405334      -41.104221
 C         -46.107437     -128.944504      -41.103188
 C         -46.005207     -130.247833      -40.334522
 H         -48.311771     -132.091141      -42.195869
 H         -48.582748     -131.141113      -40.713661
 H         -47.583641     -127.821655      -42.380001
 H         -48.139675     -128.227295      -40.898247
 H         -45.965065     -131.380249      -42.025948
 H         -46.606384     -132.340515      -40.651405
 H         -45.769905     -127.995461      -40.550392
 H         -45.375149     -129.007599      -41.944820
 H         -44.898808     -130.403076      -40.176670
 H         -46.366688     -130.065384      -39.321266
