20
 generated by VMD
 C         -52.766876     -146.852066      -45.366791
 N         -52.608532     -147.332474      -44.297886
 H         -54.872368     -146.900436      -48.035538
 H         -52.876194     -146.278076      -46.308651
 C         -54.493484     -145.968872      -48.339615
 C         -53.234058     -145.792557      -49.208912
 C         -55.223171     -144.727249      -47.927166
 C         -53.388779     -144.789078      -50.291103
 C         -55.251743     -143.707016      -49.125320
 C         -53.916054     -143.540192      -49.741966
 H         -53.093613     -146.737823      -49.688896
 H         -52.300785     -145.677399      -48.538593
 H         -56.165501     -145.059448      -47.484455
 H         -54.484653     -144.235153      -47.111305
 H         -53.857792     -145.069336      -51.252514
 H         -52.407848     -144.702591      -50.677261
 H         -55.647728     -142.797211      -48.812260
 H         -55.978783     -144.134094      -49.922485
 H         -53.966541     -142.770340      -50.531528
 H         -53.162796     -143.254654      -48.962383
