20
 generated by VMD
 C         -12.397706      -28.410168       -5.690904
 N         -13.310178      -27.806793       -5.882164
 H         -11.662497      -31.639980       -4.039643
 H         -11.319180      -30.024260       -5.017651
 C         -10.907692      -30.906157       -4.318212
 C          -9.785851      -31.759163       -5.002432
 C         -10.326913      -30.455780       -2.983839
 C          -8.530262      -30.942724       -5.232168
 C          -9.183693      -29.462456       -3.288263
 C          -8.096029      -30.234877       -3.983219
 H         -10.207989      -32.102215       -6.053737
 H          -9.661525      -32.620735       -4.393365
 H         -11.101243      -29.962006       -2.465221
 H          -9.983902      -31.288961       -2.358205
 H          -8.646166      -30.214926       -6.025536
 H          -7.727378      -31.626825       -5.551840
 H          -8.836269      -29.041018       -2.309132
 H          -9.516382      -28.659512       -3.911048
 H          -7.287546      -29.597376       -4.259659
 H          -7.721550      -30.986481       -3.250679
