20
 generated by VMD
 C         -30.994337      -74.882416      -22.546618
 N         -31.212410      -75.644524      -21.726841
 H         -28.673910      -77.335655      -20.943029
 H         -30.900665      -74.062408      -23.380251
 C         -27.742260      -76.897064      -21.360928
 C         -26.684687      -77.712265      -22.086485
 C         -27.279314      -75.672470      -20.612650
 C         -25.755987      -76.743378      -23.042738
 C         -26.468468      -74.737267      -21.545750
 C         -25.307230      -75.566628      -22.088505
 H         -27.250872      -78.410851      -22.696178
 H         -26.072592      -78.349022      -21.541109
 H         -28.121864      -75.199654      -20.253426
 H         -26.677919      -76.015106      -19.755224
 H         -26.357882      -76.315514      -23.870359
 H         -24.940233      -77.371407      -23.429691
 H         -26.198936      -73.814697      -21.033827
 H         -27.106089      -74.322578      -22.344044
 H         -24.729118      -74.807999      -22.656374
 H         -24.577913      -75.764160      -21.335640
