20
 generated by VMD
 C          -5.534647      -21.244492        1.596926
 N          -5.584920      -21.039764        2.691197
 H          -4.902946      -18.786526       -0.874449
 H          -5.713958      -20.160793       -0.233531
 C          -5.772347      -19.438431       -1.005839
 C          -5.544860      -20.055635       -2.328786
 C          -7.143466      -18.757383       -1.026301
 C          -6.597103      -21.087582       -2.609123
 C          -8.251439      -19.760386       -1.143142
 C          -8.035312      -20.626869       -2.386233
 H          -4.574728      -20.497822       -2.440314
 H          -5.532336      -19.300350       -3.198771
 H          -7.216441      -18.019270       -0.248040
 H          -7.135687      -18.006954       -1.888041
 H          -6.327094      -21.935480       -1.968233
 H          -6.480691      -21.443712       -3.628339
 H          -9.216588      -19.257380       -1.202545
 H          -8.268197      -20.445623       -0.269426
 H          -8.809182      -21.455400       -2.397467
 H          -8.339310      -20.054377       -3.315597
