20
 generated by VMD
 C         -68.851181     -194.931824      -65.517929
 N         -68.672516     -194.609665      -64.427917
 H         -71.295769     -194.108139      -68.023338
 H         -68.949600     -195.184143      -66.525459
 C         -72.015854     -193.781921      -67.257278
 C         -71.740326     -192.494324      -66.558846
 C         -73.420441     -194.397797      -67.371689
 C         -72.834053     -192.153381      -65.554153
 C         -74.514252     -193.405548      -67.021561
 C         -74.187103     -192.102371      -66.279137
 H         -71.684937     -191.640320      -67.191940
 H         -70.821320     -192.648056      -65.816483
 H         -73.391869     -194.725281      -68.416512
 H         -73.643692     -195.294128      -66.717377
 H         -72.565430     -191.139954      -65.072540
 H         -72.993187     -192.911301      -64.790298
 H         -75.165993     -193.947510      -66.365616
 H         -75.146538     -193.145386      -67.922836
 H         -74.039650     -191.409775      -66.973526
 H         -75.045631     -191.732285      -65.585091
