20
 generated by VMD
 C         -60.493061     -169.765335      -55.167725
 N         -59.379276     -169.518707      -55.388969
 H         -63.085888     -170.680344      -56.741539
 H         -61.568832     -169.982605      -55.118145
 C         -63.269718     -169.662354      -56.956932
 C         -62.577785     -169.083191      -58.123760
 C         -64.010719     -168.637436      -55.984619
 C         -63.242920     -167.795532      -58.726631
 C         -64.570335     -167.496765      -56.742691
 C         -63.528839     -166.815079      -57.627796
 H         -62.348095     -169.694260      -58.983173
 H         -61.507343     -168.801971      -57.729469
 H         -64.793404     -169.225555      -55.469051
 H         -63.253674     -168.400040      -55.272739
 H         -64.106148     -168.177155      -59.259121
 H         -62.596756     -167.181641      -59.364700
 H         -64.745636     -166.686279      -56.045727
 H         -65.520607     -167.599991      -57.329334
 H         -64.041412     -165.954819      -58.046375
 H         -62.543140     -166.521317      -57.097950
