20
 generated by VMD
 C         -68.587784     -184.930634      -65.975433
 N         -69.571243     -185.518570      -65.995934
 H         -69.756104     -182.753403      -63.248844
 H         -67.666191     -184.310822      -65.988220
 C         -69.290016     -183.656479      -62.892372
 C         -70.018875     -184.912521      -62.679554
 C         -67.837151     -183.506989      -62.524315
 C         -69.070786     -185.907303      -61.964172
 C         -67.487045     -184.195541      -61.130409
 C         -68.368507     -185.349396      -60.775539
 H         -70.332718     -185.338898      -63.638180
 H         -70.851425     -184.649567      -62.051571
 H         -67.264511     -184.230026      -63.260181
 H         -67.446411     -182.458221      -62.610329
 H         -68.487968     -186.460220      -62.706139
 H         -69.702156     -186.715866      -61.586212
 H         -67.480667     -183.433182      -60.305019
 H         -66.366905     -184.471863      -61.161697
 H         -67.892494     -186.052185      -60.098255
 H         -69.314125     -184.909836      -60.117210
