20
 generated by VMD
 C         -68.768082     -188.338226      -67.449043
 N         -68.174797     -187.417145      -67.820358
 H         -68.169655     -187.027725      -63.747120
 H         -69.297089     -189.212723      -67.243065
 C         -69.175377     -187.386551      -63.496971
 C         -69.230553     -188.434921      -62.293022
 C         -70.430481     -186.572418      -63.715633
 C         -70.455147     -189.289597      -62.357109
 C         -71.639099     -187.533417      -63.821617
 C         -71.696945     -188.460846      -62.649117
 H         -69.196548     -187.818253      -61.368004
 H         -68.297035     -189.095810      -62.239719
 H         -70.563156     -185.948090      -62.805737
 H         -70.452660     -185.946136      -64.560982
 H         -70.674728     -189.703049      -61.398533
 H         -70.339905     -190.204788      -63.030670
 H         -71.520744     -188.065735      -64.792572
 H         -72.561676     -186.979111      -63.980099
 H         -72.082558     -187.914047      -61.794170
 H         -72.598602     -189.198273      -62.622433
