20
 generated by VMD
 C         -61.074566     -156.078522      -54.565174
 N         -60.650589     -156.085159      -55.609840
 H         -59.493343     -155.812393      -51.279049
 H         -61.488255     -155.896210      -53.613358
 C         -58.412601     -155.883972      -51.315346
 C         -57.587364     -154.779007      -50.723858
 C         -57.671387     -156.815536      -52.161720
 C         -56.335491     -155.356171      -50.123787
 C         -56.382343     -157.367386      -51.649277
 C         -55.556282     -156.293365      -51.093182
 H         -58.171646     -154.277466      -49.968147
 H         -57.318771     -153.955353      -51.528801
 H         -58.250507     -157.658920      -52.278999
 H         -57.509792     -156.362137      -53.117153
 H         -56.653919     -156.083252      -49.411079
 H         -55.796463     -154.568375      -49.659184
 H         -56.039032     -157.778900      -52.546116
 H         -56.509480     -158.260147      -50.947979
 H         -54.702133     -156.639099      -50.568027
 H         -55.144501     -155.682785      -51.943352
