20
 generated by VMD
 C         -50.397087     -131.958267      -47.026230
 N         -49.952473     -132.397751      -47.948380
 H         -48.385078     -131.700684      -43.728302
 H         -50.741703     -131.398102      -46.135735
 C         -48.717606     -132.411758      -43.049728
 C         -49.443089     -133.644196      -43.622204
 C         -48.654495     -132.246902      -41.599983
 C         -49.245590     -134.887268      -42.859245
 C         -48.461735     -133.594467      -40.808117
 C         -49.446911     -134.615875      -41.373928
 H         -49.207912     -133.822418      -44.757500
 H         -50.458302     -133.336090      -43.580189
 H         -47.801399     -131.538254      -41.258354
 H         -49.613979     -131.753098      -41.354946
 H         -48.219517     -135.251877      -43.084129
 H         -49.948650     -135.678833      -43.185513
 H         -48.554737     -133.297806      -39.818604
 H         -47.474831     -133.931793      -41.156803
 H         -49.507751     -135.580444      -40.924377
 H         -50.514622     -134.287308      -41.330521
