20
 generated by VMD
 C         -60.500191     -155.558243      -54.467548
 N         -61.160862     -156.554581      -54.616001
 H         -59.320477     -155.301071      -51.616371
 H         -59.939037     -154.651062      -54.397358
 C         -58.237049     -155.392761      -51.500423
 C         -57.524544     -154.480682      -50.476147
 C         -57.413410     -156.140839      -52.455391
 C         -56.364105     -155.290466      -49.812527
 C         -56.168842     -156.798401      -51.944557
 C         -55.404911     -155.908844      -50.963020
 H         -58.297047     -154.119247      -49.853897
 H         -57.152611     -153.501129      -50.839191
 H         -57.970501     -156.841583      -53.056149
 H         -56.865932     -155.544434      -53.274956
 H         -56.887188     -156.176788      -49.303493
 H         -55.710194     -154.721283      -49.215626
 H         -55.541214     -157.067673      -52.730133
 H         -56.419258     -157.709503      -51.355686
 H         -54.639923     -156.617371      -50.507549
 H         -54.831749     -155.135132      -51.507301
