20
 generated by VMD
 C         -22.579285      -52.287106      -11.697243
 N         -22.378899      -52.675243      -10.646448
 H         -19.934225      -52.489239      -14.075830
 H         -22.846596      -51.956257      -12.668830
 C         -18.874126      -52.290966      -13.840468
 C         -17.895187      -51.706909      -14.887904
 C         -18.386417      -53.047817      -12.631589
 C         -16.542927      -52.253792      -14.613339
 C         -17.233627      -52.263836      -12.058952
 C         -16.096590      -52.138264      -13.136538
 H         -17.914263      -50.674435      -14.712420
 H         -18.086655      -51.920162      -15.940806
 H         -19.203882      -53.122032      -11.863731
 H         -18.109270      -54.069202      -12.950809
 H         -15.725141      -51.813557      -15.201887
 H         -16.486366      -53.325584      -14.853279
 H         -16.888985      -52.817707      -11.220663
 H         -17.500444      -51.276756      -11.684310
 H         -15.708332      -51.126034      -13.012544
 H         -15.237681      -52.748692      -12.897261
