20
 generated by VMD
 C         -49.542862     -131.873428      -46.412262
 N         -50.288406     -132.327103      -47.278000
 H         -47.467957     -133.947113      -44.187592
 H         -49.058868     -131.584808      -45.492188
 C         -48.416874     -134.162231      -43.674805
 C         -49.110203     -135.460785      -43.934429
 C         -49.095032     -133.074203      -42.946953
 C         -49.739998     -135.995361      -42.700722
 C         -49.721428     -133.611725      -41.641541
 C         -50.540462     -134.991531      -41.882549
 H         -48.398418     -136.284714      -44.287628
 H         -49.770020     -135.329987      -44.812195
 H         -48.434883     -132.201843      -42.623344
 H         -49.865597     -132.635483      -43.595139
 H         -48.960445     -136.292557      -42.010395
 H         -50.526615     -136.726028      -42.846172
 H         -50.133358     -132.783951      -41.145603
 H         -48.960457     -133.945831      -40.967243
 H         -50.906528     -135.327057      -40.983311
 H         -51.527023     -134.833664      -42.349533
