20
 generated by VMD
 C         -38.657047     -113.432701      -36.206970
 N         -37.489235     -113.526810      -36.063602
 H         -41.337166     -114.467896      -35.229721
 H         -39.714382     -113.291351      -36.259850
 C         -42.288551     -114.537712      -35.754307
 C         -42.126400     -114.677666      -37.176815
 C         -43.564339     -114.113129      -35.009537
 C         -43.493389     -115.045860      -37.886112
 C         -44.613537     -114.900360      -35.691021
 C         -44.724358     -114.613487      -37.150524
 H         -41.378590     -115.463081      -37.443516
 H         -41.788647     -113.674400      -37.619514
 H         -43.504166     -114.441246      -34.000824
 H         -43.676590     -113.028374      -35.040421
 H         -43.549538     -116.132164      -37.993843
 H         -43.499302     -114.669853      -38.973179
 H         -45.525230     -114.662781      -35.068462
 H         -44.457291     -116.011787      -35.744568
 H         -45.525517     -115.180801      -37.572285
 H         -44.924648     -113.462402      -37.220245
