20
 generated by VMD
 C         -56.330647     -149.798386      -46.431488
 N         -56.727409     -150.577789      -45.675430
 H         -53.240032     -147.647766      -47.658772
 H         -56.058670     -148.937149      -47.071484
 C         -53.653225     -147.405838      -48.612064
 C         -52.946365     -147.718414      -49.855949
 C         -54.690430     -146.319168      -48.539139
 C         -53.821381     -147.527985      -51.121441
 C         -55.332451     -145.786819      -49.899200
 C         -54.438568     -146.089371      -51.151390
 H         -52.697323     -148.716064      -49.938305
 H         -51.936394     -147.138519      -49.974480
 H         -55.390224     -146.524277      -47.774830
 H         -54.142658     -145.495178      -48.022324
 H         -54.654545     -148.252060      -50.988140
 H         -53.259800     -147.859375      -52.023472
 H         -55.422626     -144.640182      -49.715790
 H         -56.251888     -146.275040      -50.137569
 H         -55.222214     -146.091614      -51.913162
 H         -53.667358     -145.320786      -51.418022
