20
 generated by VMD
 C         -18.337076      -49.069336       -7.630960
 N         -19.155941      -49.800049       -7.799996
 H         -16.217222      -47.347767      -10.052538
 H         -16.760904      -48.904968      -10.725394
 C         -16.466278      -47.863380      -10.969145
 C         -15.247608      -47.880840      -11.929399
 C         -17.628408      -47.112804      -11.666345
 C         -15.519217      -48.067333      -13.449159
 C         -17.960018      -47.802132      -12.971045
 C         -16.811974      -47.436783      -13.879195
 H         -14.565462      -48.670208      -11.613923
 H         -14.688959      -46.950310      -11.702516
 H         -18.563393      -47.057861      -11.071146
 H         -17.389986      -46.043755      -11.763239
 H         -15.426152      -49.128487      -13.727408
 H         -14.732395      -47.658573      -14.118758
 H         -18.880789      -47.490795      -13.394243
 H         -17.924189      -48.958168      -12.938345
 H         -17.005730      -47.778038      -14.917253
 H         -16.672791      -46.342209      -13.905805
