20
 generated by VMD
 C         -22.972008      -55.346767      -16.700777
 N         -23.442442      -54.768795      -15.878201
 H         -19.307400      -55.400822      -15.564404
 H         -22.497709      -56.095074      -17.322315
 C         -19.229931      -56.195412      -14.830249
 C         -20.121281      -56.187740      -13.605801
 C         -18.339773      -57.501774      -15.067080
 C         -20.772303      -57.586460      -13.333071
 C         -19.143381      -58.783176      -14.759320
 C         -19.577505      -58.602524      -13.324787
 H         -20.978296      -55.589485      -13.787709
 H         -19.540075      -55.732239      -12.836082
 H         -18.097605      -57.499748      -16.149021
 H         -17.404976      -57.589611      -14.481179
 H         -21.521166      -57.814026      -14.085850
 H         -21.219189      -57.644337      -12.298652
 H         -18.662479      -59.750938      -14.916206
 H         -20.013561      -58.758606      -15.514318
 H         -19.946245      -59.562508      -12.981345
 H         -18.813055      -58.168873      -12.610806
