20
 generated by VMD
 C          -3.643139      -19.117893        2.471451
 N          -3.327872      -18.282763        3.138249
 H          -5.561718      -20.401150        0.215671
 H          -6.129162      -21.262915       -1.181631
 C          -6.194096      -20.261459       -0.678524
 C          -5.534513      -19.243935       -1.602521
 C          -7.641296      -19.915827       -0.187102
 C          -6.483930      -18.959393       -2.725120
 C          -8.551358      -19.476263       -1.357151
 C          -7.788957      -18.455475       -2.181770
 H          -4.529783      -19.609125       -1.963182
 H          -5.379373      -18.252020       -1.141356
 H          -8.043016      -20.684589        0.360933
 H          -7.576415      -19.131189        0.483664
 H          -6.612779      -19.885450       -3.287427
 H          -6.120930      -18.322695       -3.463363
 H          -9.426536      -18.987474       -0.958885
 H          -8.888633      -20.355345       -1.876290
 H          -8.443306      -18.141838       -3.019822
 H          -7.587478      -17.566774       -1.565132
