20
 generated by VMD
 C         -68.882767     -180.154297      -62.307281
 N         -69.752815     -180.899628      -62.230202
 H         -66.749039     -180.617966      -59.151203
 H         -67.985374     -179.497040      -62.302166
 C         -66.386429     -179.700531      -59.671104
 C         -65.528824     -180.024445      -60.860058
 C         -66.147072     -178.485733      -58.907318
 C         -65.167023     -178.787659      -61.718933
 C         -66.169334     -177.321869      -59.864437
 C         -65.216270     -177.390320      -61.028248
 H         -66.120590     -180.638687      -61.481770
 H         -64.676788     -180.558243      -60.638466
 H         -66.906319     -178.530426      -58.101700
 H         -65.162506     -178.498428      -58.372334
 H         -65.794853     -178.793610      -62.616402
 H         -64.169891     -178.925232      -62.058784
 H         -66.055855     -176.360214      -59.281067
 H         -67.190102     -177.185257      -60.304024
 H         -65.031296     -176.636459      -61.794827
 H         -64.279114     -177.320755      -60.656193
