20
 generated by VMD
 C         -11.315201      -33.735424       -8.439915
 N         -10.860287      -33.250046       -9.368325
 H         -11.681848      -36.702602       -8.035545
 H         -12.261754      -36.228981       -6.461402
 C         -12.342465      -36.998291       -7.195720
 C         -12.011213      -38.257820       -6.496915
 C         -13.804792      -36.943226       -7.642118
 C         -12.892052      -38.560013       -5.334021
 C         -14.689307      -37.146683       -6.443273
 C         -14.357519      -38.503094       -5.764441
 H         -10.941827      -38.186821       -6.169888
 H         -12.149184      -39.117928       -7.150213
 H         -14.010551      -35.973621       -8.155914
 H         -13.881208      -37.808990       -8.314376
 H         -12.664977      -37.783066       -4.528093
 H         -12.726111      -39.540913       -4.897812
 H         -15.729353      -37.146336       -6.673329
 H         -14.541879      -36.398361       -5.678554
 H         -15.033383      -38.671818       -4.910291
 H         -14.605222      -39.298985       -6.432715
