20
 generated by VMD
 C         -11.956923      -25.895399       -0.108729
 N         -12.967253      -26.189514       -0.488974
 H          -9.819271      -26.710245       -2.913209
 H          -9.500141      -25.782389       -4.422019
 C          -8.980942      -26.267702       -3.561087
 C          -7.991547      -27.192366       -4.172079
 C          -8.362560      -25.042381       -2.814564
 C          -6.690992      -26.658960       -4.746419
 C          -7.149335      -24.463497       -3.506761
 C          -6.128734      -25.531099       -3.930309
 H          -8.530805      -27.877064       -4.870879
 H          -7.550934      -27.837589       -3.376183
 H          -9.058208      -24.250679       -2.643068
 H          -7.975355      -25.504457       -1.862414
 H          -7.015079      -26.246542       -5.719690
 H          -5.965111      -27.482193       -4.986136
 H          -6.689290      -23.601566       -2.969589
 H          -7.516566      -23.969967       -4.427976
 H          -5.282344      -25.030907       -4.366812
 H          -5.680256      -25.867081       -2.987275
