20
 generated by VMD
 C         -79.471954     -206.850540      -74.855957
 N         -80.022697     -207.646744      -74.247154
 H         -76.876724     -207.706589      -73.360031
 H         -79.117058     -205.958755      -75.316299
 C         -77.000092     -207.794342      -72.239723
 C         -75.670296     -207.557678      -71.488869
 C         -77.752251     -208.955704      -71.675163
 C         -75.701248     -207.571060      -69.940598
 C         -78.063995     -208.622604      -70.215439
 C         -76.836349     -208.578796      -69.406448
 H         -75.332680     -206.550079      -71.887550
 H         -74.847221     -208.230209      -71.639816
 H         -78.676849     -209.131424      -72.296196
 H         -77.192757     -209.900085      -71.761963
 H         -75.870667     -206.644409      -69.482162
 H         -74.865791     -208.063309      -69.487061
 H         -78.601097     -209.523758      -69.839622
 H         -78.728745     -207.814438      -70.259590
 H         -77.035545     -208.463135      -68.308319
 H         -76.308647     -209.571655      -69.375931
