20
 generated by VMD
 C         -20.464825      -57.345345      -16.619570
 N         -19.875191      -56.334312      -16.516787
 H         -22.960190      -60.203735      -17.849197
 H         -21.030569      -58.221867      -16.852364
 C         -22.579050      -60.619747      -16.989971
 C         -23.292805      -60.200695      -15.739968
 C         -21.260376      -61.357521      -16.872015
 C         -22.533304      -60.382339      -14.433713
 C         -21.005653      -62.062691      -15.515807
 C         -21.913694      -61.738728      -14.337007
 H         -24.303209      -60.727913      -15.776360
 H         -23.436441      -59.124050      -15.906054
 H         -21.269138      -62.231068      -17.538658
 H         -20.417515      -60.724403      -17.087677
 H         -23.236629      -60.263912      -13.603557
 H         -21.850441      -59.579041      -14.163175
 H         -19.946775      -61.778687      -15.157292
 H         -21.018700      -63.185577      -15.591985
 H         -22.693815      -62.462891      -14.080919
 H         -21.226280      -61.736675      -13.509788
