20
 generated by VMD
 C          -1.529958      -10.559009        0.889495
 N          -0.775817      -10.944700        1.647901
 H          -3.887349      -12.911221        0.172928
 H          -5.113524      -12.512652        1.343180
 C          -4.479012      -13.365507        0.979791
 C          -3.667633      -13.962543        2.076904
 C          -5.429537      -14.425259        0.401691
 C          -4.527495      -14.466709        3.175073
 C          -6.342622      -15.146334        1.456229
 C          -5.463111      -15.585522        2.657519
 H          -2.943291      -13.164127        2.373898
 H          -3.170879      -14.768011        1.569526
 H          -5.988266      -14.150964       -0.461247
 H          -4.858696      -15.230652        0.002002
 H          -5.083902      -13.634295        3.614262
 H          -3.824170      -14.923588        3.928175
 H          -6.885378      -16.028290        1.011292
 H          -7.099403      -14.423448        1.807532
 H          -6.103270      -15.792264        3.499253
 H          -4.870623      -16.491131        2.477692
