20
 generated by VMD
 C         -62.644760     -172.180725      -55.158844
 N         -61.770054     -172.976700      -55.347099
 H         -61.593849     -171.066788      -58.076370
 H         -63.348228     -171.321487      -55.164879
 C         -62.483105     -170.473099      -58.259377
 C         -62.362682     -169.032486      -58.073231
 C         -63.745255     -171.173981      -58.500114
 C         -63.562054     -168.232574      -58.276672
 C         -65.002792     -170.204147      -58.708405
 C         -64.947212     -168.933685      -57.862633
 H         -61.546139     -168.619049      -58.678978
 H         -61.991661     -168.927307      -57.005161
 H         -63.619682     -171.860550      -59.340012
 H         -63.871048     -171.837646      -57.691776
 H         -63.787613     -167.852264      -59.269939
 H         -63.541973     -167.372849      -57.500149
 H         -65.883347     -170.810242      -58.400517
 H         -65.086609     -170.024094      -59.822018
 H         -65.845512     -168.303711      -57.987370
 H         -64.833260     -169.042511      -56.845917
