20
 generated by VMD
 C         -20.343611      -57.277397      -16.732138
 N         -19.488983      -56.472145      -16.718822
 H         -22.643444      -59.938171      -17.929127
 H         -21.129555      -58.171856      -16.502783
 C         -22.526691      -60.519279      -16.954817
 C         -23.608536      -60.741795      -15.947586
 C         -21.244907      -61.210564      -16.793953
 C         -22.950527      -60.714764      -14.425803
 C         -21.063948      -62.102432      -15.479448
 C         -22.024843      -61.952732      -14.326735
 H         -24.144951      -61.666534      -16.075418
 H         -24.239561      -59.824299      -15.985895
 H         -21.044975      -61.744591      -17.708075
 H         -20.493858      -60.391632      -16.791719
 H         -23.790104      -60.916992      -13.761687
 H         -22.498865      -59.770256      -14.107624
 H         -20.043198      -61.946415      -15.207313
 H         -21.170383      -63.136444      -15.798783
 H         -22.671808      -62.819534      -14.552907
 H         -21.607878      -62.138241      -13.289647
