20
 generated by VMD
 C         -59.914242     -152.352631      -51.015175
 N         -60.805363     -153.098495      -51.327499
 H         -56.836071     -152.371658      -48.883709
 H         -59.039196     -151.741318      -50.865742
 C         -55.968647     -151.996750      -49.408199
 C         -54.691437     -152.750687      -49.476585
 C         -56.000690     -150.517746      -49.698368
 C         -54.070305     -152.255142      -50.930237
 C         -55.213573     -149.987122      -50.987602
 C         -53.828777     -150.731628      -51.021088
 H         -54.930111     -153.809830      -49.459770
 H         -53.935890     -152.544647      -48.611069
 H         -57.021461     -150.245804      -49.670387
 H         -55.599854     -150.193771      -48.752525
 H         -54.734306     -152.625534      -51.743477
 H         -53.114349     -152.759155      -51.050594
 H         -54.952003     -148.874786      -50.734985
 H         -55.809364     -150.034241      -51.848335
 H         -53.128860     -150.257233      -51.812477
 H         -53.351891     -150.414917      -50.133923
