20
 generated by VMD
 C         -12.709304      -30.108202       -7.665577
 N         -13.658875      -29.575758       -7.915393
 H         -11.390322      -30.215216       -4.924705
 H         -10.111766      -30.520784       -3.524875
 C         -10.728919      -30.952953       -4.437201
 C          -9.690667      -31.434898       -5.426091
 C         -11.634843      -32.187241       -3.934811
 C          -8.940430      -32.617012       -4.940870
 C         -10.776728      -33.296185       -3.298066
 C          -9.642673      -33.768143       -4.227261
 H          -9.043579      -30.582794       -5.713799
 H         -10.196803      -31.707693       -6.338688
 H         -12.432357      -31.831758       -3.259949
 H         -12.090916      -32.624947       -4.862992
 H          -8.236717      -32.224133       -4.168889
 H          -8.368084      -33.138588       -5.739747
 H         -11.425620      -34.141602       -3.005097
 H         -10.240607      -33.008049       -2.429371
 H          -8.934114      -34.415466       -3.602052
 H         -10.181706      -34.362209       -5.025090
