20
 generated by VMD
 C         -79.759117     -206.542480      -73.202667
 N         -79.568771     -206.324707      -74.361153
 H         -78.506653     -205.431656      -70.344109
 H         -79.981346     -206.859833      -72.185234
 C         -77.444115     -205.672562      -70.240044
 C         -76.402733     -204.872635      -71.042084
 C         -76.953583     -207.028702      -69.721962
 C         -74.910805     -205.020935      -70.445473
 C         -75.423523     -206.960556      -69.141167
 C         -74.533951     -206.429962      -70.233116
 H         -76.468918     -203.805237      -71.174492
 H         -76.433197     -205.218079      -72.011673
 H         -77.690353     -207.380005      -68.968552
 H         -76.902245     -207.735413      -70.560524
 H         -74.813911     -204.469223      -69.465202
 H         -74.148117     -204.598434      -71.128494
 H         -75.197395     -207.944199      -68.885170
 H         -75.341675     -206.192810      -68.276306
 H         -73.487869     -206.582428      -69.850372
 H         -74.647026     -206.955719      -71.173279
