20
 generated by VMD
 C          -1.534643      -10.598745        0.848311
 N          -0.785076      -10.853986        1.660481
 H          -3.803308      -12.970217        0.168798
 H          -5.065237      -12.526713        1.428826
 C          -4.494420      -13.351964        0.960684
 C          -3.631254      -13.931373        2.075839
 C          -5.446955      -14.409814        0.401772
 C          -4.481592      -14.465784        3.204061
 C          -6.333030      -15.098637        1.464055
 C          -5.470235      -15.563846        2.685339
 H          -2.784204      -13.328477        2.527786
 H          -3.081149      -14.839075        1.752031
 H          -6.047584      -13.876976       -0.289784
 H          -4.807435      -15.085526       -0.052532
 H          -5.081795      -13.756164        3.770257
 H          -3.859797      -15.005403        3.974106
 H          -6.793059      -15.995961        0.990921
 H          -7.144571      -14.450791        1.861714
 H          -6.074384      -15.920192        3.487399
 H          -4.883533      -16.402803        2.340333
