20
 generated by VMD
 C         -44.340664     -122.005669      -35.935974
 N         -43.880779     -120.898712      -35.926510
 H         -44.863445     -122.530960      -39.001347
 H         -44.789951     -122.948822      -36.055180
 C         -44.790424     -121.545494      -39.403843
 C         -43.409988     -121.134003      -39.645882
 C         -45.899635     -120.639023      -39.145462
 C         -43.304955     -119.668289      -40.089985
 C         -45.826366     -119.267708      -39.747227
 C         -44.283325     -118.763351      -39.428181
 H         -42.954182     -121.782196      -40.367294
 H         -42.886360     -121.390144      -38.762718
 H         -46.830902     -120.994911      -39.556992
 H         -46.041298     -120.692993      -38.014717
 H         -43.511745     -119.495712      -41.120159
 H         -42.269421     -119.175499      -40.100010
 H         -46.433113     -118.366127      -39.445400
 H         -46.012554     -119.235634      -40.877102
 H         -44.176376     -117.761673      -40.005627
 H         -44.146786     -118.589104      -38.302914
