20
 generated by VMD
 C         -50.726177     -129.619675      -45.501106
 N         -51.414032     -130.493057      -45.719952
 H         -48.514950     -130.639374      -43.857403
 H         -50.194031     -128.734100      -45.151016
 C         -48.128712     -130.743805      -42.855427
 C         -48.329052     -132.165955      -42.190155
 C         -47.849525     -129.557297      -41.991020
 C         -47.121540     -132.369339      -41.215942
 C         -46.672421     -129.880173      -41.066658
 C         -46.810623     -131.216797      -40.314461
 H         -48.302097     -133.040085      -42.799572
 H         -49.282001     -132.271530      -41.556629
 H         -47.719109     -128.606171      -42.627522
 H         -48.727356     -129.363327      -41.314789
 H         -46.239079     -132.511047      -41.813084
 H         -47.268452     -133.231964      -40.581291
 H         -46.509583     -128.972214      -40.481510
 H         -45.739220     -130.079010      -41.736568
 H         -45.891613     -131.315506      -39.672283
 H         -47.462181     -130.897919      -39.523270
