20
 generated by VMD
 C          -1.212557      -12.802238        1.165958
 N          -0.636068      -12.822918        0.245758
 H          -4.183586      -13.056978        1.437506
 H          -5.771854      -13.305839        0.569722
 C          -4.996841      -13.759269        1.212527
 C          -5.634955      -14.089641        2.632645
 C          -4.386362      -14.984435        0.535508
 C          -6.573571      -15.276644        2.529249
 C          -5.498125      -16.063427        0.403966
 C          -6.024554      -16.425341        1.795295
 H          -6.203381      -13.167488        2.980519
 H          -4.891839      -14.119144        3.420945
 H          -4.038564      -14.597143       -0.431304
 H          -3.496654      -15.369230        1.108149
 H          -7.391792      -14.868577        1.951036
 H          -7.016565      -15.538829        3.509171
 H          -5.130542      -16.956598       -0.139113
 H          -6.283822      -15.627872       -0.231614
 H          -6.688352      -17.242188        1.694895
 H          -5.169932      -16.809383        2.307297
