20
 generated by VMD
 C         -36.866669      -97.906250      -26.427038
 N         -35.912479      -98.347748      -25.976877
 H         -36.014336      -95.502998      -28.255175
 H         -37.856438      -97.458466      -26.662037
 C         -35.536316      -95.278351      -29.228378
 C         -35.693459      -96.182457      -30.352530
 C         -34.170139      -94.591202      -29.056789
 C         -35.286839      -95.624435      -31.758669
 C         -33.900906      -93.845978      -30.356798
 C         -33.931576      -94.824913      -31.584780
 H         -36.644962      -96.682541      -30.294821
 H         -34.985928      -96.969536      -30.273964
 H         -34.343777      -93.877693      -28.215279
 H         -33.454426      -95.374100      -28.801680
 H         -36.116417      -94.969765      -32.131439
 H         -35.275578      -96.493126      -32.382271
 H         -32.797874      -93.665451      -30.336031
 H         -34.498192      -93.034027      -30.614943
 H         -33.744633      -94.329735      -32.661995
 H         -33.177197      -95.536964      -31.522596
