20
 generated by VMD
 C         -69.716515     -180.241882      -61.632164
 N         -69.264145     -180.983597      -62.432293
 H         -66.759338     -180.226456      -59.207176
 H         -70.091042     -179.533844      -60.939816
 C         -66.218124     -179.354553      -59.720242
 C         -65.377754     -179.601883      -60.880299
 C         -65.950302     -178.211014      -58.832706
 C         -65.316315     -178.375610      -61.790237
 C         -65.761658     -176.934570      -59.664242
 C         -64.886909     -177.128296      -60.953934
 H         -65.629196     -180.491943      -61.531483
 H         -64.298805     -179.906982      -60.565929
 H         -66.905998     -177.988770      -58.352043
 H         -65.195961     -178.490280      -58.029919
 H         -66.357674     -178.333847      -62.190392
 H         -64.480659     -178.713699      -62.473156
 H         -65.132530     -176.259033      -59.096619
 H         -66.706810     -176.437408      -59.809723
 H         -64.770439     -176.235855      -61.550045
 H         -63.768013     -177.267197      -60.707012
