20
 generated by VMD
 C         -57.451595     -164.146393      -56.678585
 N         -57.264847     -163.144043      -57.227100
 H         -59.763405     -164.905426      -54.499146
 H         -57.521339     -165.116638      -56.181122
 C         -60.855831     -165.083054      -54.692917
 C         -61.717464     -165.334930      -53.521828
 C         -61.370285     -164.371567      -55.884483
 C         -63.198811     -164.845840      -53.527191
 C         -62.820728     -163.793106      -55.854000
 C         -63.756516     -164.689651      -55.003307
 H         -61.206306     -165.080902      -52.518147
 H         -61.685711     -166.440353      -53.466000
 H         -60.794487     -163.535675      -56.255730
 H         -61.388969     -165.102783      -56.789944
 H         -63.264160     -163.867569      -52.970509
 H         -63.665188     -165.705368      -52.960541
 H         -63.085617     -163.721512      -56.892658
 H         -62.712250     -162.578979      -55.610954
 H         -64.718521     -164.302063      -54.960239
 H         -63.765961     -165.608505      -55.484612
