20
 generated by VMD
 C         -28.476097      -82.464340      -26.429501
 N         -27.661196      -82.820618      -27.187151
 H         -31.046625      -84.095604      -26.704185
 H         -29.188572      -82.134842      -25.578140
 C         -31.401449      -84.682487      -25.773939
 C         -30.874741      -84.511620      -24.359514
 C         -31.980095      -86.030083      -26.114204
 C         -31.849081      -84.941025      -23.311327
 C         -33.047810      -86.454826      -25.067924
 C         -32.441616      -86.358788      -23.647057
 H         -30.691101      -83.421875      -24.220030
 H         -29.853565      -85.061638      -24.429518
 H         -32.612644      -85.990944      -27.054689
 H         -31.174740      -86.684509      -26.394960
 H         -32.655220      -84.222778      -23.158678
 H         -31.293009      -85.155693      -22.293253
 H         -33.270172      -87.534363      -25.220879
 H         -33.925156      -85.944038      -25.264683
 H         -33.082123      -86.787056      -22.816710
 H         -31.575163      -87.003059      -23.629141
