20
 generated by VMD
 C         -70.127747     -183.975159      -65.995323
 N         -69.012955     -183.741089      -66.334282
 H         -69.016647     -184.622086      -63.387001
 H         -71.062187     -184.277878      -65.668068
 C         -68.678223     -183.949234      -62.593033
 C         -69.004059     -184.703110      -61.245914
 C         -68.039398     -182.621490      -62.653214
 C         -67.714539     -184.592545      -60.349133
 C         -67.023033     -182.554703      -61.475624
 C         -67.321281     -183.162659      -60.062565
 H         -69.221642     -185.748856      -61.341618
 H         -69.876060     -184.128357      -60.907799
 H         -67.372017     -182.538223      -63.594650
 H         -68.866386     -181.943298      -62.668442
 H         -67.032967     -185.284012      -60.760326
 H         -68.053642     -185.009827      -59.373444
 H         -66.834175     -181.501709      -61.103897
 H         -66.091301     -183.061859      -61.896954
 H         -66.528412     -182.988586      -59.334358
 H         -68.208366     -182.699768      -59.630833
