20
 generated by VMD
 C         -73.811043     -200.413406      -65.649391
 N         -73.269836     -201.115601      -64.922302
 H         -72.147675     -197.179382      -66.538635
 H         -74.380051     -199.996460      -66.516510
 C         -72.754272     -196.946838      -67.428230
 C         -73.761604     -195.842255      -67.253838
 C         -72.669464     -197.557877      -68.787720
 C         -73.974907     -195.110550      -68.526016
 C         -73.862160     -197.285797      -69.725090
 C         -74.524277     -195.919968      -69.675285
 H         -73.384171     -195.329849      -66.398819
 H         -74.748627     -196.181564      -66.877853
 H         -71.762321     -197.170990      -69.239769
 H         -72.469444     -198.602173      -68.666153
 H         -72.978905     -194.748367      -68.847832
 H         -74.611122     -194.219299      -68.282639
 H         -74.561165     -198.155167      -69.731918
 H         -73.439438     -197.340057      -70.688126
 H         -74.482323     -195.564209      -70.791290
 H         -75.618111     -196.163910      -69.550400
