20
 generated by VMD
 C         -12.417715      -28.295055       -5.419472
 N         -13.201969      -28.147436       -6.192162
 H         -11.896791      -31.688444       -4.408352
 H         -11.274546      -30.368334       -5.217792
 C         -10.961679      -31.149857       -4.531596
 C          -9.831520      -31.918818       -5.194709
 C         -10.609995      -30.396608       -3.209011
 C          -8.598586      -31.017345       -5.243591
 C          -9.249171      -29.744377       -3.216807
 C          -8.166943      -30.639271       -3.829501
 H         -10.164265      -32.342999       -6.209957
 H          -9.599205      -32.839592       -4.571540
 H         -11.399382      -29.722429       -2.892887
 H         -10.577599      -31.166779       -2.433905
 H          -8.819848      -30.086044       -5.842737
 H          -7.747413      -31.488634       -5.795094
 H          -9.006298      -29.399536       -2.239709
 H          -9.301643      -28.840269       -3.881403
 H          -7.195628      -30.102703       -3.882608
 H          -7.858860      -31.453009       -3.114897
