20
 generated by VMD
 C         -67.490791     -180.016296      -58.308197
 N         -68.477592     -180.102646      -58.905560
 H         -67.267914     -176.542618      -60.082760
 H         -66.601143     -179.945297      -57.661312
 C         -66.337875     -176.125336      -60.075153
 C         -66.029785     -175.174866      -61.279980
 C         -65.104218     -176.714844      -59.407387
 C         -64.774971     -174.320908      -61.228870
 C         -63.996601     -175.662750      -59.249176
 C         -63.598427     -174.997681      -60.604378
 H         -66.996498     -174.676849      -61.591228
 H         -65.979172     -175.806244      -62.129440
 H         -65.216591     -176.944855      -58.300102
 H         -64.637177     -177.615509      -59.726818
 H         -64.986549     -173.372192      -60.696545
 H         -64.444870     -173.897385      -62.259529
 H         -63.122688     -176.201385      -58.892391
 H         -64.311127     -174.949966      -58.465454
 H         -62.885380     -174.231262      -60.311283
 H         -62.988857     -175.626373      -61.163635
