20
 generated by VMD
 C         -41.267464     -119.303070      -34.661804
 N         -40.488060     -119.388611      -35.476315
 H         -43.474998     -118.025894      -36.445309
 H         -42.113125     -119.073639      -33.966751
 C         -43.855778     -117.693832      -37.357704
 C         -42.984776     -117.885208      -38.578617
 C         -45.214764     -117.072411      -37.571377
 C         -43.723454     -118.535522      -39.787205
 C         -45.960300     -117.681076      -38.817825
 C         -45.015018     -117.714073      -40.001228
 H         -42.119652     -118.541519      -38.296295
 H         -42.528069     -116.935287      -38.800594
 H         -45.852707     -117.123856      -36.737339
 H         -45.041916     -115.953094      -37.685532
 H         -43.872543     -119.607063      -39.583618
 H         -43.034290     -118.546394      -40.586006
 H         -46.928303     -117.167732      -39.044395
 H         -46.444466     -118.646698      -38.542545
 H         -45.572617     -118.006966      -40.864441
 H         -44.762180     -116.590515      -40.292049
