20
 generated by VMD
 C          -1.422130       -9.546463        1.129655
 N          -1.818542       -9.811913        0.150740
 H          -2.949150      -12.104632        1.574303
 H          -3.776762      -12.017745        3.083270
 C          -3.654125      -12.656561        2.192051
 C          -2.966453      -13.992341        2.523026
 C          -4.990955      -12.824177        1.404118
 C          -3.941357      -14.951278        3.216779
 C          -5.939876      -13.690458        2.292621
 C          -5.299104      -15.092789        2.550495
 H          -2.188302      -13.792357        3.287454
 H          -2.551151      -14.459361        1.643987
 H          -5.491968      -11.821152        1.299762
 H          -4.852015      -13.301065        0.409420
 H          -4.071069      -14.475123        4.142170
 H          -3.351120      -15.837203        3.421266
 H          -6.929625      -13.820881        1.803530
 H          -6.082987      -13.166727        3.246034
 H          -5.936566      -15.716192        3.213094
 H          -5.253020      -15.686323        1.574198
