20
 generated by VMD
 C         -11.596210      -41.870911       -6.105338
 N         -10.885612      -41.478260       -6.889540
 H         -14.597930      -41.296604       -8.424705
 H         -15.374438      -40.567966       -9.711455
 C         -15.265904      -41.527679       -9.228140
 C         -16.675543      -41.936481       -8.714645
 C         -14.577539      -42.515785      -10.182546
 C         -17.560421      -42.523010       -9.816270
 C         -15.528845      -42.934696      -11.298762
 C         -16.766016      -43.561539      -10.611344
 H         -17.202219      -41.097973       -8.179373
 H         -16.484013      -42.762424       -8.025087
 H         -13.619740      -42.160526      -10.685722
 H         -14.300459      -43.446251       -9.663486
 H         -17.953342      -41.698139      -10.454880
 H         -18.492523      -42.903427       -9.382023
 H         -15.070877      -43.622131      -11.982216
 H         -15.818757      -42.042328      -11.886835
 H         -17.461269      -43.958691      -11.358884
 H         -16.427118      -44.373669      -10.001388
