20
 generated by VMD
 C         -70.164253     -182.838165      -65.952530
 N         -71.131409     -183.436523      -65.626152
 H         -67.739258     -182.527100      -63.097912
 H         -69.311165     -182.262970      -66.194992
 C         -67.426079     -182.258224      -62.088589
 C         -67.686707     -183.304367      -61.050526
 C         -66.992638     -180.847336      -61.859730
 C         -66.638077     -183.149353      -59.839867
 C         -66.193748     -180.613892      -60.580143
 C         -66.553192     -181.624908      -59.419281
 H         -67.489349     -184.192688      -61.558544
 H         -68.636833     -183.147003      -60.525959
 H         -66.296906     -180.635727      -62.684414
 H         -67.941353     -180.274536      -62.088570
 H         -65.663460     -183.474014      -60.274979
 H         -67.005211     -183.975891      -59.039143
 H         -66.241829     -179.547607      -60.236168
 H         -65.116486     -180.802139      -60.723301
 H         -65.882225     -181.564301      -58.527050
 H         -67.568520     -181.430893      -58.966846
