20
 generated by VMD
 C         -79.542679     -205.295563      -71.002693
 N         -80.643585     -205.529739      -70.989098
 H         -77.005798     -202.936920      -69.085274
 H         -78.455978     -205.132629      -70.774178
 C         -75.926872     -202.904449      -69.443245
 C         -75.340385     -202.146011      -70.640976
 C         -75.209557     -204.174271      -69.129662
 C         -73.955032     -201.754822      -70.099380
 C         -73.710678     -204.141037      -69.216141
 C         -73.241768     -203.080872      -70.242836
 H         -76.033600     -201.343933      -70.983009
 H         -75.248779     -202.791229      -71.520432
 H         -75.587036     -204.447266      -68.123192
 H         -75.667313     -205.076721      -69.622826
 H         -73.887161     -201.413284      -69.063469
 H         -73.445580     -201.029282      -70.672394
 H         -73.158218     -205.107071      -69.355934
 H         -73.262245     -203.780167      -68.307961
 H         -72.206139     -202.933853      -70.143379
 H         -73.342384     -203.381241      -71.304710
