20
 generated by VMD
 C         -77.868889     -203.213715      -69.601562
 N         -78.337654     -204.131882      -69.015076
 H         -75.193535     -202.109222      -67.147026
 H         -77.476761     -202.374619      -70.232018
 C         -74.943550     -201.603790      -68.156120
 C         -75.019554     -200.185410      -68.547249
 C         -73.859833     -202.401199      -68.817841
 C         -74.716812     -199.930878      -69.996201
 C         -73.028137     -201.656097      -69.884338
 C         -73.948975     -200.899323      -70.872536
 H         -74.308449     -199.641968      -67.980270
 H         -76.044823     -199.791809      -68.254761
 H         -73.208374     -202.798004      -68.081665
 H         -74.267120     -203.221924      -69.277534
 H         -74.203194     -198.954788      -70.158821
 H         -75.687691     -199.745438      -70.487511
 H         -72.508438     -202.356155      -70.594284
 H         -72.164558     -201.138153      -69.403938
 H         -73.517517     -200.357193      -71.680710
 H         -74.744896     -201.541565      -71.405785
