20
 generated by VMD
 C         -10.964319      -33.118954       -8.640804
 N         -10.797289      -33.965656       -9.305789
 H         -12.732200      -34.143002       -6.540517
 H         -13.139340      -34.892178       -4.914770
 C         -12.969065      -35.103611       -5.969217
 C         -11.680612      -35.886101       -6.185155
 C         -14.171703      -35.856453       -6.563180
 C         -11.698830      -37.259129       -5.582080
 C         -14.308085      -37.184811       -5.833096
 C         -13.020055      -37.987114       -5.963493
 H         -10.865355      -35.298309       -5.805724
 H         -11.528785      -35.987541       -7.275988
 H         -15.021119      -35.217651       -6.431036
 H         -14.096354      -35.897022       -7.671567
 H         -11.774720      -37.220432       -4.543340
 H         -10.864999      -37.879745       -5.924549
 H         -15.234879      -37.785858       -6.087461
 H         -14.369424      -36.932804       -4.786162
 H         -13.013477      -38.946087       -5.436476
 H         -12.868361      -38.294170       -7.054417
