20
 generated by VMD
 C         -23.622248      -69.271156      -16.627605
 N         -23.916029      -69.910439      -15.715762
 H         -23.782402      -66.286697      -19.192734
 H         -23.466866      -68.597252      -17.510904
 C         -24.460979      -67.184799      -19.415686
 C         -23.912228      -68.028679      -20.630484
 C         -25.892370      -67.246788      -19.319059
 C         -24.569134      -69.453094      -20.821472
 C         -26.406317      -68.713654      -19.452303
 C         -26.140142      -69.380600      -20.702389
 H         -22.826204      -68.195854      -20.397032
 H         -23.954378      -67.489532      -21.490694
 H         -26.382225      -66.965767      -18.351074
 H         -26.466478      -66.485451      -20.103249
 H         -24.253689      -70.079353      -19.936266
 H         -24.260469      -69.977715      -21.700560
 H         -27.503956      -68.807030      -19.238100
 H         -25.995222      -69.283188      -18.573513
 H         -26.437790      -70.441902      -20.629002
 H         -26.460012      -68.914795      -21.647980
