20
 generated by VMD
 C         -11.963260      -31.446354       -8.264754
 N         -12.027687      -30.645609       -7.477935
 H         -11.923567      -34.769073       -7.973160
 H         -12.830819      -34.096745       -6.743114
 C         -11.951123      -34.637848       -6.888006
 C         -10.815426      -33.860783       -6.140180
 C         -12.139807      -36.014832       -6.233224
 C         -11.201967      -33.750294       -4.686275
 C         -12.500147      -35.925800       -4.784599
 C         -11.531775      -35.048409       -3.972561
 H         -10.648056      -32.870964       -6.634319
 H          -9.855893      -34.349304       -6.224618
 H         -12.902257      -36.567505       -6.776537
 H         -11.210520      -36.588627       -6.374087
 H         -12.111513      -33.104111       -4.586117
 H         -10.517641      -33.145908       -4.023169
 H         -12.536917      -36.929977       -4.250553
 H         -13.490713      -35.491138       -4.639461
 H         -11.979515      -34.873901       -2.987902
 H         -10.565864      -35.637779       -3.837057
