20
 generated by VMD
 C         -61.498520     -155.916824      -54.702751
 N         -60.920658     -155.458603      -53.863457
 H         -58.947399     -155.110367      -51.934219
 H         -62.080257     -156.394897      -55.448009
 C         -57.918011     -155.180893      -51.600910
 C         -57.456665     -154.480377      -50.333008
 C         -56.947193     -155.650940      -52.621109
 C         -56.206871     -155.071442      -49.613743
 C         -55.636082     -156.234467      -51.826633
 C         -55.103268     -155.327454      -50.615646
 H         -58.192326     -154.539215      -49.526009
 H         -57.307964     -153.356415      -50.668789
 H         -57.185261     -156.441086      -53.210102
 H         -56.679951     -154.737640      -53.206768
 H         -56.431320     -156.067886      -49.198544
 H         -55.898113     -154.377533      -48.919971
 H         -54.867851     -156.448624      -52.502464
 H         -55.980354     -157.256180      -51.384663
 H         -54.196217     -155.659729      -50.195030
 H         -54.799377     -154.397476      -51.144768
