20
 generated by VMD
 C         -19.480581      -50.009949       -9.356825
 N         -19.622446      -51.099693       -9.657845
 H         -16.574545      -47.712418       -9.989176
 H         -19.507563      -48.895775       -8.918328
 C         -16.715315      -48.110371      -11.025916
 C         -15.668429      -48.991779      -11.557523
 C         -17.271811      -47.178272      -12.063448
 C         -16.137852      -49.779705      -12.785124
 C         -17.926664      -48.052292      -13.118925
 C         -16.959349      -48.999489      -13.861037
 H         -15.395471      -49.646481      -10.698812
 H         -14.721583      -48.492455      -11.763442
 H         -17.965191      -46.502007      -11.572694
 H         -16.427099      -46.567566      -12.381949
 H         -16.769999      -50.629429      -12.383801
 H         -15.340133      -50.360100      -13.288338
 H         -18.604177      -47.535416      -13.858782
 H         -18.661802      -48.673756      -12.530166
 H         -17.481508      -49.680244      -14.541286
 H         -16.238958      -48.417912      -14.409372
