20
 generated by VMD
 C         -47.995987     -124.989990      -38.632969
 N         -47.136787     -125.773758      -38.727928
 H         -45.321663     -123.057098      -37.764519
 H         -48.924046     -124.432693      -38.837654
 C         -45.102673     -122.884285      -38.810940
 C         -44.116596     -123.860825      -39.406303
 C         -45.652500     -121.827103      -39.657742
 C         -44.497223     -124.237137      -40.866730
 C         -46.062649     -122.361504      -41.021790
 C         -44.750225     -123.025589      -41.671032
 H         -43.981991     -124.786980      -38.695034
 H         -43.149555     -123.347351      -39.405678
 H         -46.515705     -121.522987      -39.165394
 H         -45.096603     -120.900406      -39.898434
 H         -45.383381     -124.897484      -40.781609
 H         -43.584717     -124.731361      -41.265614
 H         -46.350433     -121.594170      -41.730507
 H         -46.903419     -123.056870      -40.750065
 H         -44.959461     -123.330574      -42.743149
 H         -43.851631     -122.373352      -41.726284
