20
 generated by VMD
 C         -47.724232     -138.068420      -45.915707
 N         -47.262165     -137.706100      -46.930473
 H         -50.407394     -137.782806      -44.232685
 H         -48.104816     -138.146240      -44.876663
 C         -51.258804     -138.091095      -44.797993
 C         -51.404415     -138.558884      -46.262772
 C         -52.561115     -137.630905      -44.053131
 C         -52.417099     -139.720200      -46.247719
 C         -53.577869     -138.757050      -44.151165
 C         -53.711533     -139.310760      -45.632767
 H         -50.458012     -138.923965      -46.619030
 H         -51.669529     -137.726273      -46.828754
 H         -52.311703     -137.406494      -42.966522
 H         -52.932266     -136.722046      -44.578156
 H         -52.117836     -140.504501      -45.560913
 H         -52.495407     -140.104370      -47.274174
 H         -54.631496     -138.371262      -43.904411
 H         -53.186329     -139.555099      -43.521374
 H         -54.541630     -140.183685      -45.531891
 H         -54.138760     -138.449677      -46.221180
