20
 generated by VMD
 C         -79.977364     -206.913437      -74.078033
 N         -80.486870     -206.270294      -74.930771
 H         -77.777702     -206.609695      -71.986092
 H         -79.667480     -207.652130      -73.345711
 C         -76.918167     -207.343750      -71.785172
 C         -75.596077     -206.690552      -71.537651
 C         -77.218651     -208.530212      -71.016571
 C         -75.434181     -206.348602      -70.074257
 C         -77.028442     -208.348297      -69.471390
 C         -75.785706     -207.507324      -69.114334
 H         -75.516838     -205.884583      -72.347923
 H         -74.802864     -207.463593      -71.682968
 H         -78.214409     -208.971710      -71.248619
 H         -76.463135     -209.228699      -71.253166
 H         -75.857506     -205.357254      -69.896576
 H         -74.377235     -206.120117      -69.844498
 H         -76.850197     -209.324371      -68.985115
 H         -77.917816     -207.947037      -69.065872
 H         -75.718643     -207.164444      -68.079231
 H         -74.797691     -208.132645      -69.232346
