20
 generated by VMD
 C         -73.923958     -201.417114      -65.537102
 N         -72.938026     -200.986603      -65.993423
 H         -75.713814     -198.289383      -67.245575
 H         -74.799942     -202.033569      -65.173286
 C         -75.169319     -197.782074      -68.061905
 C         -74.880386     -196.249878      -67.930939
 C         -74.471069     -198.593170      -69.099411
 C         -73.490692     -195.890747      -68.456284
 C         -73.409332     -197.822281      -69.956215
 C         -72.552521     -196.936127      -69.097359
 H         -74.949615     -195.881210      -66.967125
 H         -75.689690     -195.870880      -68.577942
 H         -73.841835     -199.378677      -68.589081
 H         -75.197166     -199.050674      -69.855522
 H         -73.056435     -195.449310      -67.594177
 H         -73.708939     -195.100113      -69.207184
 H         -73.863602     -197.319595      -70.791496
 H         -72.729507     -198.465988      -70.511887
 H         -71.985466     -197.534882      -68.362068
 H         -71.831612     -196.383377      -69.747475
