20
 generated by VMD
 C         -41.677193     -102.286743      -34.180729
 N         -40.940571     -101.836113      -34.913395
 H         -39.349133     -104.219879      -32.372925
 H         -42.144855     -102.885933      -33.392582
 C         -38.376785     -104.173424      -32.085579
 C         -37.321430     -103.638344      -33.019386
 C         -38.137619     -104.966904      -30.950741
 C         -36.054123     -103.328194      -32.300941
 C         -36.910122     -104.546104      -30.179266
 C         -35.762611     -104.418991      -31.236244
 H         -37.686771     -102.798355      -33.594349
 H         -37.164661     -104.421104      -33.869205
 H         -39.031708     -105.007080      -30.454376
 H         -37.897217     -106.034546      -31.248230
 H         -36.061359     -102.461983      -31.647938
 H         -35.267502     -103.178589      -33.043072
 H         -36.655636     -105.243690      -29.373455
 H         -37.077335     -103.566132      -29.752979
 H         -34.833878     -104.197624      -30.710623
 H         -35.658333     -105.387054      -31.692478
