20
 generated by VMD
 C         -65.827843     -177.670868      -56.893017
 N         -66.236366     -176.605499      -57.102932
 H         -64.882782     -175.714615      -59.208359
 H         -65.432648     -178.660416      -56.677071
 C         -64.673538     -174.694595      -59.361378
 C         -65.448257     -173.657608      -58.622143
 C         -63.494045     -174.345001      -60.369987
 C         -65.255150     -172.225174      -59.024551
 C         -63.091141     -172.842178      -60.184124
 C         -64.379936     -172.008102      -60.214592
 H         -65.335358     -173.834213      -57.605026
 H         -66.519814     -173.802414      -58.914440
 H         -62.626766     -175.034378      -60.108112
 H         -63.794445     -174.374313      -61.418968
 H         -64.754425     -171.594711      -58.240669
 H         -66.259666     -171.799210      -59.218616
 H         -62.363953     -172.511322      -61.025520
 H         -62.573460     -172.639832      -59.271805
 H         -64.194115     -170.957260      -60.415398
 H         -64.840622     -172.380890      -61.130581
