20
 generated by VMD
 C         -57.959793     -166.441727      -56.272987
 N         -58.284092     -167.156036      -55.442883
 H         -60.765724     -165.530457      -54.553967
 H         -57.759064     -165.641037      -56.999336
 C         -61.537498     -165.586533      -55.330883
 C         -61.762310     -166.819489      -56.205803
 C         -62.385540     -164.420364      -55.599640
 C         -63.257278     -167.221039      -56.278839
 C         -63.940361     -164.861389      -55.532475
 C         -64.222305     -166.012131      -56.551647
 H         -61.137619     -167.467987      -55.702709
 H         -61.257988     -166.545532      -57.197453
 H         -62.161907     -163.742691      -54.665081
 H         -62.191528     -163.844513      -56.469913
 H         -63.579296     -167.571945      -55.264904
 H         -63.422070     -168.109207      -56.968155
 H         -64.688408     -163.997635      -55.581493
 H         -64.100609     -165.402908      -54.422722
 H         -65.204185     -166.424606      -56.487118
 H         -64.088768     -165.678589      -57.593338
