20
 generated by VMD
 C         -68.440613     -185.133041      -66.100922
 N         -69.499832     -185.635117      -66.180237
 H         -69.841888     -182.741684      -63.224266
 H         -67.486519     -184.617874      -66.064194
 C         -69.291153     -183.610748      -62.807510
 C         -70.111740     -184.805206      -62.516144
 C         -67.765656     -183.675171      -62.554783
 C         -69.312645     -185.972931      -62.012680
 C         -67.672615     -184.228867      -61.138390
 C         -68.352760     -185.567963      -60.909866
 H         -70.557686     -185.167114      -63.433586
 H         -70.922264     -184.607925      -61.735500
 H         -67.366020     -184.383499      -63.295670
 H         -67.360863     -182.662903      -62.648647
 H         -68.819336     -186.536697      -62.832298
 H         -69.935394     -186.762772      -61.572975
 H         -68.057625     -183.588684      -60.309185
 H         -66.615746     -184.209091      -60.854221
 H         -67.817978     -186.431015      -60.552120
 H         -68.905434     -185.477280      -60.063889
