20
 generated by VMD
 C         -66.984917     -177.833267      -57.098457
 N         -67.827827     -178.586319      -56.825611
 H         -64.001968     -176.030670      -58.914433
 H         -66.248360     -177.145172      -57.428825
 C         -64.164986     -175.116150      -59.482822
 C         -65.474403     -174.422699      -59.459232
 C         -63.194084     -174.594666      -60.531425
 C         -65.377617     -172.902130      -59.397583
 C         -62.978706     -173.150467      -60.413021
 C         -64.288605     -172.310272      -60.317135
 H         -66.129036     -174.769363      -58.734932
 H         -65.965027     -174.693985      -60.448299
 H         -62.263729     -175.132965      -60.571587
 H         -63.536289     -174.653717      -61.579491
 H         -65.003159     -172.590302      -58.376373
 H         -66.384460     -172.395996      -59.509525
 H         -62.192989     -172.780670      -61.194794
 H         -62.442593     -173.045990      -59.508339
 H         -63.986931     -171.289124      -59.919765
 H         -64.493248     -172.148193      -61.372734
