20
 generated by VMD
 C         -12.001981      -31.534727       -9.045328
 N         -12.654127      -32.175762       -9.654997
 H         -10.696845      -34.142120       -6.729277
 H         -11.723163      -33.947044       -5.222891
 C         -11.347369      -34.668396       -5.947632
 C         -10.575315      -35.821732       -5.269983
 C         -12.571295      -35.283787       -6.646092
 C         -11.515396      -36.558094       -4.286230
 C         -13.526113      -35.961784       -5.713859
 C         -12.882768      -37.090240       -4.892745
 H          -9.731112      -35.357262       -4.762745
 H         -10.141696      -36.434563       -6.049411
 H         -13.025282      -34.428410       -7.143066
 H         -12.240017      -36.024460       -7.421932
 H         -11.839765      -35.902470       -3.512815
 H         -10.955899      -37.371174       -3.846092
 H         -14.342010      -36.450974       -6.337822
 H         -13.973798      -35.267910       -5.085180
 H         -13.536395      -37.302162       -4.021769
 H         -12.818875      -38.073856       -5.473341
