20
 generated by VMD
 C         -31.558840      -77.681358      -26.427967
 N         -31.732677      -78.014084      -27.508039
 H         -29.225712      -78.937630      -23.621141
 H         -31.074121      -77.579300      -25.455126
 C         -28.981205      -79.663513      -22.949444
 C         -27.531599      -79.991104      -23.068340
 C         -29.829397      -80.901405      -22.789738
 C         -27.042393      -80.899811      -21.878544
 C         -29.426157      -81.800377      -21.640858
 C         -27.914639      -82.023140      -21.591507
 H         -26.859692      -79.059792      -23.154985
 H         -27.359196      -80.512299      -24.109888
 H         -30.780405      -80.555389      -22.628023
 H         -29.930342      -81.454971      -23.783823
 H         -26.977468      -80.178436      -21.054558
 H         -25.969440      -81.272072      -22.094854
 H         -30.002012      -82.770630      -21.740496
 H         -29.747881      -81.369179      -20.735342
 H         -27.784929      -82.363022      -20.537495
 H         -27.614683      -82.851318      -22.231525
