20
 generated by VMD
 C         -25.641054      -71.496872      -16.849283
 N         -26.396965      -72.265419      -16.480057
 H         -24.201193      -68.994926      -18.805513
 H         -25.077454      -70.571678      -17.241997
 C         -24.820856      -69.507271      -19.550676
 C         -24.114483      -70.451355      -20.431147
 C         -25.766005      -68.667404      -20.269108
 C         -25.032055      -71.356186      -21.291471
 C         -26.664911      -69.505623      -21.157043
 C         -26.063295      -70.499771      -22.058645
 H         -23.566269      -71.219055      -19.864195
 H         -23.527752      -69.833473      -21.077518
 H         -26.454887      -68.186485      -19.570095
 H         -25.265835      -67.952179      -20.808084
 H         -25.496990      -72.106148      -20.605024
 H         -24.278610      -71.965630      -21.925171
 H         -27.311872      -68.783249      -21.729441
 H         -27.460503      -70.023979      -20.590019
 H         -26.903645      -71.182877      -22.355190
 H         -25.522526      -70.097786      -22.923704
