20
 generated by VMD
 C         -74.874832     -201.803085      -66.267624
 N         -74.116287     -201.090057      -65.763641
 H         -76.138649     -199.327621      -68.458313
 H         -75.431686     -202.539062      -66.909286
 C         -75.321091     -198.647995      -68.749275
 C         -75.052811     -197.311737      -68.258644
 C         -74.469498     -199.169525      -70.009651
 C         -73.570496     -197.010056      -68.077461
 C         -73.123802     -198.352142      -70.250603
 C         -72.518997     -197.945892      -68.893959
 H         -75.425194     -197.209213      -67.205017
 H         -75.472961     -196.614594      -68.846802
 H         -74.317062     -200.277466      -69.897057
 H         -75.069138     -199.002304      -70.874016
 H         -73.074890     -196.949783      -67.112068
 H         -73.422089     -196.003510      -68.455727
 H         -73.374252     -197.461288      -70.802132
 H         -72.362579     -199.007202      -70.739037
 H         -72.196732     -198.878357      -68.412254
 H         -71.640091     -197.315796      -69.115761
