20
 generated by VMD
 C         -19.356285      -60.566437      -17.878347
 N         -20.036041      -59.631073      -17.842892
 H         -22.813009      -59.970333      -16.011053
 H         -18.968565      -61.479355      -17.887762
 C         -23.119678      -61.008152      -16.095924
 C         -23.421272      -61.687538      -17.341816
 C         -23.528940      -61.698997      -14.816701
 C         -22.563181      -62.922501      -17.282852
 C         -23.132969      -63.186329      -14.897206
 C         -23.197689      -63.881954      -16.311317
 H         -23.021587      -61.070301      -18.175259
 H         -24.517773      -61.906742      -17.524837
 H         -22.814157      -61.298691      -13.951196
 H         -24.529583      -61.343048      -14.473224
 H         -21.554163      -62.672573      -17.015146
 H         -22.647520      -63.344479      -18.297590
 H         -23.558474      -63.754890      -14.054768
 H         -22.083084      -63.323509      -14.587553
 H         -22.685268      -64.866089      -16.287996
 H         -24.254015      -64.050301      -16.401573
