20
 generated by VMD
 C         -51.242451     -129.715912      -45.260593
 N         -51.637119     -130.160721      -46.219105
 H         -48.562832     -130.408554      -43.705265
 H         -50.824951     -129.345871      -44.321285
 C         -48.069149     -130.499496      -42.657036
 C         -48.115120     -131.768646      -41.933132
 C         -47.612156     -129.338715      -41.791348
 C         -46.848515     -132.077835      -41.158577
 C         -46.381847     -129.671066      -40.941074
 C         -46.458759     -130.965714      -40.207195
 H         -48.316711     -132.465805      -42.781998
 H         -49.013760     -131.715637      -41.325844
 H         -47.539249     -128.478180      -42.357189
 H         -48.416904     -128.998825      -41.126740
 H         -46.023529     -132.295181      -41.852642
 H         -47.056976     -132.960297      -40.510624
 H         -46.325207     -128.800064      -40.263416
 H         -45.484322     -129.613342      -41.662071
 H         -45.501911     -131.290634      -39.665619
 H         -47.112118     -131.062134      -39.329109
