20
 generated by VMD
 C         -47.925144     -125.849220      -38.828117
 N         -48.527809     -126.799622      -38.576561
 H         -45.918671     -123.136841      -38.129093
 H         -47.388149     -124.855598      -38.882683
 C         -45.697418     -123.344673      -39.192913
 C         -44.498192     -124.215012      -39.462605
 C         -45.575878     -122.029549      -39.857681
 C         -44.439842     -124.532166      -40.900387
 C         -45.556656     -122.219170      -41.390736
 C         -44.483536     -123.270905      -41.833809
 H         -44.725666     -125.179909      -38.903042
 H         -43.442867     -123.930794      -39.206417
 H         -46.314148     -121.244537      -39.659142
 H         -44.601498     -121.660065      -39.632130
 H         -45.355438     -125.122253      -41.082306
 H         -43.561115     -125.071503      -41.159275
 H         -45.433319     -121.299377      -41.818878
 H         -46.490742     -122.594978      -41.624226
 H         -44.514175     -123.576157      -42.881180
 H         -43.482193     -122.706741      -41.727730
