20
 generated by VMD
 C         -45.384342     -123.320709      -35.400490
 N         -45.961998     -124.347458      -35.317078
 H         -44.851166     -122.593063      -38.446907
 H         -45.077801     -122.315582      -35.665546
 C         -44.835411     -121.731750      -39.179958
 C         -43.451244     -121.345940      -39.602142
 C         -45.795219     -120.657547      -39.472099
 C         -43.352230     -120.961098      -41.065262
 C         -45.818306     -120.324005      -40.959003
 C         -44.420837     -119.874214      -41.459854
 H         -42.753094     -122.149452      -39.415627
 H         -43.274277     -120.389793      -38.999222
 H         -46.700623     -121.089500      -39.034607
 H         -45.644539     -119.624931      -38.977589
 H         -43.777367     -121.870293      -41.497921
 H         -42.321007     -120.642166      -41.328304
 H         -46.468582     -119.593330      -41.204086
 H         -46.260162     -121.181259      -41.482296
 H         -44.439022     -119.580956      -42.546074
 H         -44.241791     -118.908173      -40.987289
