20
 generated by VMD
 C          -2.507097       -8.639491        0.050406
 N          -1.530148       -8.795535       -0.533367
 H          -2.786491       -9.904802        2.903592
 H          -1.874485      -11.191955        3.547340
 C          -2.854609      -10.899257        3.181326
 C          -3.222196      -11.820653        2.004869
 C          -3.901009      -11.002594        4.251920
 C          -3.272641      -13.270464        2.506233
 C          -4.051893      -12.461699        4.756139
 C          -4.271214      -13.408619        3.670587
 H          -2.457609      -11.659583        1.245425
 H          -4.135722      -11.465308        1.593088
 H          -3.564735      -10.415883        5.140231
 H          -4.862847      -10.594111        4.041275
 H          -2.274111      -13.494499        2.876675
 H          -3.443835      -13.904830        1.649994
 H          -4.872491      -12.559730        5.538512
 H          -3.077830      -12.610494        5.268677
 H          -4.231542      -14.486647        3.941698
 H          -5.304699      -13.314022        3.285322
