20
 generated by VMD
 C         -59.738892     -157.267670      -56.944401
 N         -60.854748     -156.950638      -56.981972
 H         -59.788837     -157.284607      -53.053364
 H         -58.744469     -157.671829      -56.981884
 C         -59.182304     -157.824539      -52.383625
 C         -57.920025     -157.187073      -52.000465
 C         -59.357197     -159.302841      -52.506519
 C         -57.318604     -158.016693      -50.753910
 C         -58.678909     -160.089417      -51.389145
 C         -57.286518     -159.555756      -51.006195
 H         -58.022861     -156.005417      -51.838543
 H         -57.150063     -157.339157      -52.862190
 H         -60.452587     -159.423126      -52.505707
 H         -58.984352     -159.882355      -53.376450
 H         -57.997272     -157.852859      -49.815666
 H         -56.337154     -157.539871      -50.474712
 H         -58.502552     -161.145630      -51.769707
 H         -59.237896     -160.275024      -50.407806
 H         -56.729748     -160.078995      -50.244694
 H         -56.683987     -159.582657      -52.004799
