20
 generated by VMD
 C         -11.312473      -32.459789       -8.860958
 N         -12.076385      -32.838036       -9.578625
 H         -11.901512      -33.608406       -6.284405
 H         -12.450846      -34.287857       -4.789819
 C         -12.163352      -34.596935       -5.790753
 C         -10.981523      -35.550900       -5.601756
 C         -13.328012      -35.318096       -6.500638
 C         -11.441970      -36.817062       -4.847389
 C         -13.826784      -36.482864       -5.669236
 C         -12.735946      -37.516106       -5.471903
 H         -10.199682      -34.981392       -5.077538
 H         -10.581419      -35.823475       -6.592426
 H         -14.127526      -34.597713       -6.631515
 H         -13.024498      -35.532784       -7.541130
 H         -11.648802      -36.641106       -3.801635
 H         -10.653333      -37.586594       -4.941974
 H         -14.696938      -36.918839       -6.305496
 H         -14.226897      -36.182755       -4.725457
 H         -13.115761      -38.190884       -4.739629
 H         -12.447926      -38.080372       -6.360084
