20
 generated by VMD
 C         -61.281628     -155.724930      -54.868050
 N         -60.912182     -155.884064      -53.825573
 H         -59.058594     -155.368179      -51.830318
 H         -61.533485     -155.478531      -55.895058
 C         -58.030556     -155.278229      -51.491104
 C         -57.543236     -154.374435      -50.403389
 C         -57.032528     -155.770432      -52.491974
 C         -56.298553     -155.157257      -49.715855
 C         -55.778816     -156.418884      -51.892895
 C         -55.169128     -155.522797      -50.757698
 H         -58.281631     -154.084137      -49.561722
 H         -57.221127     -153.455154      -50.945908
 H         -57.288212     -156.592392      -53.159874
 H         -56.737389     -154.901428      -53.010468
 H         -56.564949     -156.111191      -49.245369
 H         -55.886929     -154.583664      -48.781643
 H         -54.902416     -156.430679      -52.674557
 H         -55.945889     -157.498398      -51.734123
 H         -54.306091     -156.176346      -50.354267
 H         -54.754772     -154.670624      -51.188969
