20
 generated by VMD
 C         -60.337811     -156.227631      -54.584126
 N         -60.248234     -155.385803      -55.362408
 H         -59.776352     -157.120956      -51.579605
 H         -60.421848     -157.118347      -53.984180
 C         -58.824341     -157.183411      -52.072815
 C         -58.070419     -155.876541      -52.211700
 C         -58.056534     -158.446808      -52.104786
 C         -57.136337     -155.712738      -51.023132
 C         -56.911209     -158.304550      -51.002178
 C         -56.094887     -156.835800      -50.980862
 H         -58.886028     -155.069397      -52.304989
 H         -57.461216     -155.840256      -53.172596
 H         -58.693539     -159.274567      -51.784103
 H         -57.546719     -158.564865      -53.057297
 H         -57.617092     -155.471344      -50.076885
 H         -56.450817     -154.834274      -51.037674
 H         -56.140808     -159.086487      -50.821125
 H         -57.563107     -158.282227      -50.021881
 H         -55.498653     -156.742401      -50.133820
 H         -55.483521     -156.657974      -51.936893
