20
 generated by VMD
 C         -41.474937     -102.657341      -35.816582
 N         -41.363857     -103.802872      -35.618088
 H         -39.132839     -104.878151      -33.849792
 H         -41.360966     -101.604340      -36.015076
 C         -38.539677     -105.166222      -33.079659
 C         -37.120163     -104.696114      -32.917030
 C         -39.060963     -106.446701      -32.348286
 C         -36.638966     -105.032654      -31.431070
 C         -38.470146     -106.736252      -31.027258
 C         -36.949471     -106.526741      -31.189671
 H         -36.887363     -103.620026      -33.080299
 H         -36.493591     -105.264801      -33.569901
 H         -40.144875     -106.289497      -32.177830
 H         -38.939346     -107.418213      -32.973366
 H         -37.389416     -104.538246      -30.730276
 H         -35.591572     -104.670967      -31.203972
 H         -38.494480     -107.821129      -30.689365
 H         -38.956051     -106.118813      -30.270994
 H         -36.502277     -106.744133      -30.160116
 H         -36.493553     -107.189171      -31.903450
