20
 generated by VMD
 C         -10.364437      -25.264191       -0.776826
 N         -11.309834      -24.709511       -0.557818
 H          -6.517452      -25.474035       -0.968397
 H          -8.291578      -25.384069       -1.308570
 C          -7.250200      -25.142998       -1.727421
 C          -6.949789      -26.074551       -2.974226
 C          -6.967037      -23.683212       -2.022733
 C          -7.866958      -25.455957       -4.132188
 C          -7.873094      -23.138218       -3.161715
 C          -7.737860      -23.962807       -4.405333
 H          -7.142816      -27.138094       -2.723819
 H          -5.876453      -25.982492       -3.281477
 H          -7.186083      -23.110748       -1.146535
 H          -5.898309      -23.548294       -2.251900
 H          -8.884938      -25.640278       -3.876216
 H          -7.702893      -25.958864       -5.072008
 H          -7.705233      -22.046343       -3.330865
 H          -8.915143      -23.168159       -2.807357
 H          -8.460080      -23.646343       -5.164981
 H          -6.824504      -23.865887       -5.030419
