20
 generated by VMD
 C         -23.661610      -69.306946      -16.684757
 N         -23.981255      -69.916115      -15.751508
 H         -23.843449      -66.666267      -18.877871
 H         -23.231836      -68.760773      -17.572407
 C         -24.502180      -67.339653      -19.495749
 C         -23.917463      -68.168495      -20.581696
 C         -25.933002      -67.254494      -19.278030
 C         -24.518961      -69.497849      -20.785044
 C         -26.499121      -68.662727      -19.433968
 C         -26.067715      -69.392929      -20.783480
 H         -22.865263      -68.187546      -20.500055
 H         -24.095987      -67.513535      -21.463217
 H         -26.291836      -66.846176      -18.329721
 H         -26.350384      -66.629356      -19.970896
 H         -24.042728      -70.202698      -20.055592
 H         -24.193953      -69.808731      -21.838322
 H         -27.657707      -68.663376      -19.356230
 H         -26.223286      -69.341942      -18.520004
 H         -26.308056      -70.435425      -20.969082
 H         -26.296982      -68.703735      -21.610603
