20
 generated by VMD
 C         -44.952297     -122.607140      -35.434570
 N         -45.276176     -123.663719      -35.002174
 H         -45.279316     -122.839401      -39.239182
 H         -44.627659     -121.651993      -35.982761
 C         -44.925064     -121.801147      -39.556736
 C         -43.485180     -121.363548      -39.562511
 C         -45.931908     -120.727493      -39.522682
 C         -43.251926     -120.541039      -40.744297
 C         -45.806004     -119.842789      -40.708855
 C         -44.408268     -119.360268      -40.943386
 H         -42.943417     -122.283600      -39.809937
 H         -43.211880     -120.916756      -38.617340
 H         -46.886024     -121.243324      -39.373352
 H         -45.811401     -120.029053      -38.631290
 H         -43.173908     -121.184326      -41.585327
 H         -42.305641     -119.921852      -40.686073
 H         -46.502853     -119.003716      -40.789558
 H         -46.059135     -120.438438      -41.720741
 H         -44.215847     -118.726608      -41.799553
 H         -44.260715     -118.720558      -40.071659
