20
 generated by VMD
 C          -7.056564      -23.229784        2.819355
 N          -6.151878      -22.626165        2.656153
 H          -6.562940      -21.242897       -0.207735
 H          -8.136353      -21.826315       -0.856786
 C          -7.171351      -21.330652       -1.147295
 C          -6.379019      -22.217289       -2.129874
 C          -7.301906      -19.925106       -1.596592
 C          -7.099213      -22.155144       -3.490610
 C          -7.975083      -19.891712       -2.921152
 C          -7.210864      -20.724649       -3.970630
 H          -6.447787      -23.202734       -1.765327
 H          -5.328654      -21.771902       -2.256902
 H          -7.937867      -19.364096       -0.924435
 H          -6.431249      -19.294762       -1.512045
 H          -8.077373      -22.654161       -3.424949
 H          -6.560118      -22.792467       -4.215268
 H          -8.017825      -18.867231       -3.368411
 H          -9.073540      -20.067564       -2.821182
 H          -7.734332      -20.673033       -4.944852
 H          -6.227115      -20.191521       -4.114966
