20
 generated by VMD
 C         -21.971718      -55.448505      -17.540733
 N         -21.277187      -55.810814      -18.367054
 H         -21.531044      -56.850086      -14.218598
 H         -22.713514      -54.881710      -16.786249
 C         -21.268328      -57.869877      -14.260051
 C         -21.396566      -58.821869      -13.058152
 C         -21.132923      -58.456486      -15.548676
 C         -20.824665      -60.228081      -13.239651
 C         -20.261950      -59.798683      -15.668426
 C         -19.866650      -60.363655      -14.330718
 H         -22.484875      -58.870842      -12.706989
 H         -20.794668      -58.407055      -12.209540
 H         -22.071663      -58.595612      -15.979023
 H         -20.674429      -57.706535      -16.197052
 H         -21.659975      -60.879391      -13.416879
 H         -20.426386      -60.652287      -12.350913
 H         -19.353418      -59.591423      -16.252838
 H         -20.762226      -60.527618      -16.315624
 H         -19.489571      -61.432510      -14.413633
 H         -18.955669      -59.799755      -14.001723
