20
 generated by VMD
 C         -21.278812      -56.213173      -17.348873
 N         -20.816860      -55.296001      -17.890858
 H         -23.385290      -58.762959      -15.580344
 H         -21.733601      -57.038475      -17.003733
 C         -22.458792      -59.244408      -15.235654
 C         -21.885902      -58.948456      -13.931005
 C         -21.653965      -60.094933      -16.258537
 C         -20.952017      -60.105595      -13.306933
 C         -20.403765      -60.752617      -15.729459
 C         -20.509890      -61.181488      -14.238077
 H         -22.621140      -58.778336      -13.155843
 H         -21.254017      -58.051563      -14.159087
 H         -22.311119      -60.964832      -16.439196
 H         -21.377789      -59.551266      -17.185810
 H         -21.333111      -60.506699      -12.373454
 H         -20.088488      -59.486706      -13.050746
 H         -19.675848      -59.866867      -15.727732
 H         -20.033340      -61.620533      -16.324324
 H         -21.228231      -62.016247      -14.109388
 H         -19.572924      -61.681038      -13.850863
