20
 generated by VMD
 C         -26.793161      -71.756470      -17.578875
 N         -26.802408      -72.776421      -17.045343
 H         -24.625494      -69.801987      -18.605980
 H         -26.919964      -70.763168      -18.001120
 C         -24.909698      -70.221764      -19.576929
 C         -24.033642      -71.156967      -20.376799
 C         -25.713053      -69.155273      -20.369343
 C         -24.993017      -71.939980      -21.295229
 C         -26.756861      -69.896034      -21.276598
 C         -26.067463      -70.968925      -22.166443
 H         -23.516178      -71.915001      -19.639643
 H         -23.285002      -70.626419      -20.968653
 H         -26.204309      -68.553993      -19.656610
 H         -25.044476      -68.599564      -21.045654
 H         -25.623808      -72.637993      -20.601610
 H         -24.498280      -72.598518      -22.018644
 H         -27.285870      -69.193390      -21.878994
 H         -27.488329      -70.330933      -20.636465
 H         -26.812174      -71.744438      -22.500635
 H         -25.585751      -70.445541      -23.089365
