20
 generated by VMD
 C         -40.699875     -100.056389      -29.703764
 N         -40.308517     -100.222595      -28.630543
 H         -37.334217     -100.137253      -30.583748
 H         -40.914284      -99.901222      -30.701540
 C         -36.426548      -99.508759      -30.778818
 C         -35.987946      -99.403893      -32.303837
 C         -35.401051      -99.214279      -29.702375
 C         -34.875164      -98.360893      -32.463284
 C         -34.240234      -98.275658      -29.969173
 C         -33.695713      -98.354370      -31.416397
 H         -36.873531      -99.052315      -32.913696
 H         -35.695805     -100.388458      -32.721085
 H         -35.905540      -98.993408      -28.723942
 H         -34.923832     -100.203072      -29.587503
 H         -35.204613      -97.271263      -32.497093
 H         -34.348698      -98.652931      -33.427647
 H         -33.495155      -98.369537      -29.176943
 H         -34.509575      -97.221687      -29.827219
 H         -33.155247      -97.360397      -31.566158
 H         -32.946812      -99.111717      -31.463470
