20
 generated by VMD
 C         -68.968002     -180.950470      -61.207733
 N         -69.944611     -180.831833      -60.568684
 H         -67.152496     -178.355286      -59.624428
 H         -68.011826     -180.887100      -61.756699
 C         -66.260406     -177.878708      -59.855957
 C         -65.866623     -178.024231      -61.227982
 C         -65.337433     -177.335861      -58.804710
 C         -64.971947     -176.923737      -61.751148
 C         -64.664940     -176.088470      -59.238331
 C         -64.049339     -176.347229      -60.674065
 H         -66.741562     -177.971832      -61.893318
 H         -65.292656     -178.975464      -61.482346
 H         -65.927956     -177.318573      -57.959415
 H         -64.594528     -178.164246      -58.647896
 H         -65.697769     -176.210999      -62.089413
 H         -64.584816     -177.108582      -62.726109
 H         -63.843113     -175.790024      -58.519527
 H         -65.420769     -175.322601      -59.062496
 H         -63.786175     -175.384933      -61.025307
 H         -63.155289     -177.007355      -60.622864
