20
 generated by VMD
 C         -49.326050     -132.598114      -46.863178
 N         -50.243336     -131.862366      -47.152672
 H         -47.582626     -134.271683      -44.096760
 H         -48.356281     -133.100250      -46.719742
 C         -48.445267     -134.571121      -43.553951
 C         -49.110535     -135.863037      -43.879612
 C         -49.289375     -133.426224      -43.072460
 C         -49.886475     -136.357010      -42.700027
 C         -50.165604     -133.936951      -41.895340
 C         -50.882389     -135.268295      -42.195286
 H         -48.305443     -136.594604      -44.085629
 H         -49.703152     -135.797455      -44.732132
 H         -48.612373     -132.517975      -42.871170
 H         -49.965771     -133.118835      -43.897427
 H         -49.455215     -136.734940      -41.799191
 H         -50.564693     -137.191544      -42.916817
 H         -50.933517     -133.257950      -41.533051
 H         -49.408970     -134.011230      -41.067593
 H         -51.265289     -135.489975      -41.147163
 H         -51.632355     -134.919678      -42.982632
