20
 generated by VMD
 C         -19.100725      -61.407990      -16.155970
 N         -19.935976      -60.705551      -16.531565
 H         -22.124294      -62.413113      -18.340525
 H         -18.292397      -61.995457      -15.549305
 C         -22.913633      -63.104618      -17.957930
 C         -24.066040      -63.525566      -18.765291
 C         -23.014122      -63.365429      -16.422869
 C         -24.735764      -64.858238      -18.239864
 C         -23.837654      -64.666023      -16.056149
 C         -25.111877      -64.834351      -16.742184
 H         -23.804468      -63.641541      -19.817507
 H         -24.769379      -62.741539      -18.628340
 H         -22.039423      -63.582397      -16.008631
 H         -23.448322      -62.475384      -16.027088
 H         -24.190975      -65.712845      -18.626398
 H         -25.618490      -64.961494      -18.795221
 H         -23.977190      -64.495544      -14.952636
 H         -23.175358      -65.548752      -16.246748
 H         -25.634096      -65.764572      -16.364355
 H         -25.887943      -64.072479      -16.632942
