20
 generated by VMD
 C          -1.970453      -15.651344        1.805501
 N          -1.693985      -15.299498        2.830354
 H          -4.005749      -16.270617        0.188605
 H          -4.662550      -17.240831       -1.202544
 C          -4.905050      -16.756170       -0.243525
 C          -6.032771      -15.702339       -0.451074
 C          -5.303702      -17.830141        0.787922
 C          -7.328445      -16.420799       -0.891294
 C          -6.574071      -18.535372        0.300364
 C          -7.756845      -17.605036       -0.013139
 H          -5.818837      -14.988832       -1.201904
 H          -6.179278      -15.110328        0.489129
 H          -4.571259      -18.526836        0.798732
 H          -5.474773      -17.446081        1.728240
 H          -7.272173      -16.750921       -1.970763
 H          -8.151111      -15.611290       -0.930102
 H          -6.826340      -19.283199        1.072473
 H          -6.358340      -19.141544       -0.620870
 H          -8.581721      -18.160707       -0.487594
 H          -8.144808      -17.305635        0.942356
