20
 generated by VMD
 C         -59.461163     -158.322098      -57.440403
 N         -58.429169     -158.437912      -57.945057
 H         -59.978321     -158.785156      -54.094486
 H         -60.426750     -158.268539      -57.004795
 C         -59.816715     -159.456161      -53.207214
 C         -58.583050     -159.320602      -52.353199
 C         -60.667458     -160.692551      -53.247330
 C         -58.524578     -160.444885      -51.347584
 C         -60.601746     -161.554962      -52.065849
 C         -59.225861     -161.780533      -51.656750
 H         -58.600605     -158.389923      -51.778263
 H         -57.682499     -159.309494      -52.956463
 H         -61.730614     -160.502060      -53.341522
 H         -60.437553     -161.358047      -54.195301
 H         -59.084515     -160.129868      -50.394943
 H         -57.483650     -160.674973      -51.247768
 H         -61.106400     -162.455841      -52.415691
 H         -61.100414     -161.205521      -51.162247
 H         -59.277527     -162.317276      -50.702370
 H         -58.792904     -162.311951      -52.469494
