20
 generated by VMD
 C         -38.049816     -108.019829      -37.293945
 N         -38.789104     -107.601357      -38.087971
 H         -40.629215     -108.330872      -34.425449
 H         -37.327137     -108.306305      -36.519108
 C         -40.960335     -109.326012      -34.538879
 C         -40.044910     -110.501694      -34.713139
 C         -42.311348     -109.673203      -33.992664
 C         -39.841518     -111.346268      -33.428978
 C         -42.246616     -110.461113      -32.667679
 C         -41.304581     -111.681740      -32.933208
 H         -39.119091     -110.039337      -35.026909
 H         -40.315594     -111.036476      -35.636723
 H         -42.838367     -108.672455      -33.869118
 H         -42.957485     -110.192940      -34.694275
 H         -39.273972     -110.866249      -32.634766
 H         -39.228752     -112.312286      -33.604469
 H         -43.266399     -110.871162      -32.419868
 H         -41.871075     -109.867470      -31.819622
 H         -41.222374     -112.324699      -31.904039
 H         -41.708870     -112.303154      -33.718647
