20
 generated by VMD
 C         -67.875565     -178.190231      -57.870701
 N         -67.068504     -178.634018      -57.174862
 H         -64.659660     -176.157166      -58.709610
 H         -68.622589     -177.757950      -58.541958
 C         -64.738869     -175.558075      -59.571320
 C         -65.916245     -174.611404      -59.802696
 C         -63.414059     -175.306442      -60.114868
 C         -65.415825     -173.147629      -59.813980
 C         -62.957722     -173.791000      -60.018864
 C         -64.094131     -172.862076      -60.474133
 H         -66.637779     -174.870499      -58.942268
 H         -66.516335     -174.790359      -60.673641
 H         -62.571487     -175.881134      -59.576038
 H         -63.364796     -175.439362      -61.159992
 H         -65.365509     -172.907700      -58.690231
 H         -66.267738     -172.417892      -60.062187
 H         -62.066582     -173.550308      -60.576763
 H         -62.570316     -173.833252      -59.008778
 H         -63.701973     -171.878418      -60.123989
 H         -64.154297     -172.860474      -61.629246
