20
 generated by VMD
 C         -58.076706     -150.766602      -48.998257
 N         -58.171761     -151.920425      -48.648853
 H         -55.923309     -149.964554      -48.018177
 H         -57.776020     -149.758728      -49.255318
 C         -55.269768     -149.429504      -48.742298
 C         -54.359039     -150.412140      -49.508400
 C         -55.173477     -147.988754      -48.915688
 C         -54.158039     -150.031021      -50.990108
 C         -54.883293     -147.530655      -50.361324
 C         -53.805069     -148.465591      -51.070019
 H         -54.594730     -151.446182      -49.210361
 H         -53.323017     -150.332748      -48.952923
 H         -56.063717     -147.401886      -48.541550
 H         -54.456932     -147.544220      -48.238575
 H         -55.071507     -150.372513      -51.533527
 H         -53.308933     -150.619583      -51.483246
 H         -54.483505     -146.503815      -50.485340
 H         -55.928436     -147.767914      -50.860577
 H         -53.728683     -148.031982      -52.155815
 H         -52.920315     -148.166870      -50.530487
