20
 generated by VMD
 C         -33.665718      -96.776222      -25.955032
 N         -34.785889      -96.668381      -26.126543
 H         -35.354652      -93.923019      -27.524401
 H         -32.520210      -96.904778      -25.826092
 C         -34.979683      -94.220787      -28.478191
 C         -36.013321      -94.739998      -29.361893
 C         -33.616222      -93.780052      -28.918268
 C         -36.059719      -94.038406      -30.736856
 C         -33.805080      -93.066422      -30.232195
 C         -34.597862      -93.721191      -31.318712
 H         -36.995308      -94.726830      -28.792393
 H         -35.827793      -95.802811      -29.616058
 H         -33.200039      -93.086441      -28.189232
 H         -33.049076      -94.705315      -28.833405
 H         -36.563465      -93.069496      -30.460730
 H         -36.718819      -94.638313      -31.306726
 H         -32.846748      -92.905807      -30.759907
 H         -34.274216      -92.097176      -29.960003
 H         -34.887272      -93.195076      -32.243813
 H         -34.099564      -94.741219      -31.669445
