20
 generated by VMD
 C         -28.042521      -83.244011      -27.364132
 N         -27.262285      -83.432442      -26.531187
 H         -31.233210      -84.335770      -26.503784
 H         -28.750874      -83.065536      -28.128235
 C         -31.654482      -85.154671      -25.823404
 C         -31.551443      -85.008385      -24.373953
 C         -32.119843      -86.375183      -26.382370
 C         -32.579399      -85.840233      -23.519127
 C         -33.343307      -87.017975      -25.597755
 C         -32.966587      -87.231705      -24.105705
 H         -31.915913      -84.025124      -24.344687
 H         -30.578014      -85.132584      -23.886076
 H         -32.525761      -86.055092      -27.374500
 H         -31.339424      -87.036232      -26.645271
 H         -33.544544      -85.331070      -23.376303
 H         -32.266617      -85.941612      -22.380802
 H         -33.609962      -87.943260      -26.237127
 H         -34.150513      -86.318871      -25.751667
 H         -33.704525      -87.772629      -23.395777
 H         -31.958464      -87.846344      -24.207056
