20
 generated by VMD
 C         -63.124165     -172.627487      -55.190720
 N         -62.646004     -173.641602      -55.080681
 H         -61.769840     -171.678329      -58.099239
 H         -63.648624     -171.704483      -55.352146
 C         -62.540924     -170.977982      -58.385948
 C         -62.348122     -169.449402      -58.171703
 C         -63.700256     -171.475601      -59.182484
 C         -63.727325     -168.689896      -58.164700
 C         -64.861313     -170.454086      -59.232574
 C         -64.972107     -169.556519      -58.075783
 H         -61.712997     -169.160645      -58.952660
 H         -61.792583     -169.337738      -57.172539
 H         -63.256477     -171.578400      -60.232315
 H         -64.242065     -172.337753      -58.772526
 H         -63.746281     -168.088715      -59.171494
 H         -63.778709     -167.981201      -57.344742
 H         -65.745163     -171.049194      -59.150101
 H         -64.838890     -169.892212      -60.176208
 H         -65.842323     -168.925919      -58.141907
 H         -64.949188     -170.093811      -57.076683
