20
 generated by VMD
 C         -63.112732     -172.557816      -55.159512
 N         -62.599804     -173.558350      -55.108585
 H         -61.641296     -171.547226      -58.241718
 H         -63.456676     -171.567520      -55.254959
 C         -62.500076     -170.915863      -58.407345
 C         -62.416481     -169.504593      -58.181755
 C         -63.651413     -171.390198      -59.146713
 C         -63.680008     -168.681061      -58.142597
 C         -64.919830     -170.445740      -59.219765
 C         -64.965988     -169.538681      -57.976025
 H         -61.761673     -168.990494      -58.975311
 H         -61.858170     -169.390305      -57.253948
 H         -63.570255     -171.706726      -60.153114
 H         -63.935070     -172.361252      -58.731716
 H         -63.763195     -168.162018      -59.063080
 H         -63.562836     -167.916748      -57.334515
 H         -65.839668     -171.067703      -59.495594
 H         -64.608246     -169.901962      -60.146187
 H         -65.785423     -168.743546      -58.089825
 H         -65.047958     -170.102890      -57.079590
