20
 generated by VMD
 C         -12.685276      -30.136274       -8.299113
 N         -13.462708      -30.729630       -7.767975
 H         -11.243792      -30.676525       -5.197208
 H         -10.703255      -31.266085       -3.526345
 C         -10.822165      -31.490217       -4.554528
 C          -9.464929      -32.038448       -5.151800
 C         -11.887382      -32.552593       -4.820424
 C          -9.226161      -33.364235       -4.426502
 C         -11.645790      -33.830334       -4.065918
 C         -10.299396      -34.409786       -4.573381
 H          -8.646932      -31.319025       -5.036416
 H          -9.518747      -32.168953       -6.269026
 H         -12.888087      -32.191002       -4.506258
 H         -11.995598      -32.746716       -5.900931
 H          -9.023426      -33.247952       -3.321459
 H          -8.296285      -33.829388       -4.827679
 H         -12.477915      -34.512798       -4.287629
 H         -11.659049      -33.773903       -2.958731
 H         -10.016997      -35.338047       -4.034266
 H         -10.449280      -34.676273       -5.650279
