20
 generated by VMD
 C         -11.494986      -41.730934       -6.981162
 N         -11.775869      -42.379738       -6.097834
 H         -14.882323      -43.033051       -8.136643
 H         -14.917624      -41.765774       -9.318769
 C         -15.299827      -42.778835       -9.109929
 C         -16.828518      -42.730175       -8.950622
 C         -14.820651      -43.663757      -10.272701
 C         -17.550638      -42.447037      -10.302530
 C         -15.600608      -43.374565      -11.590520
 C         -17.113287      -43.514233      -11.286700
 H         -17.103041      -41.934269       -8.253161
 H         -17.165384      -43.668770       -8.558882
 H         -13.734958      -43.544800      -10.402377
 H         -14.895524      -44.742569      -10.066843
 H         -17.305103      -41.445053      -10.659872
 H         -18.627409      -42.390232      -10.116053
 H         -15.247870      -44.109882      -12.398046
 H         -15.408978      -42.435150      -12.000739
 H         -17.728088      -43.405884      -12.220528
 H         -17.218052      -44.553970      -10.970167
