20
 generated by VMD
 C          -1.472587      -10.463019        1.059400
 N          -0.785190      -11.211072        1.570784
 H          -3.858758      -13.029412        0.139232
 H          -5.269241      -12.716905        1.223152
 C          -4.538410      -13.480271        0.852052
 C          -3.762527      -13.889126        2.056945
 C          -5.417572      -14.611833        0.280127
 C          -4.623304      -14.494526        3.175771
 C          -6.321389      -15.174420        1.429580
 C          -5.483741      -15.636915        2.658745
 H          -3.091071      -13.100103        2.432420
 H          -3.055376      -14.652203        1.791705
 H          -6.010265      -14.191888       -0.579714
 H          -4.773019      -15.503796       -0.048643
 H          -5.137977      -13.717918        3.711721
 H          -3.912204      -14.878226        3.913328
 H          -6.974151      -15.982592        1.043557
 H          -7.011385      -14.398126        1.718350
 H          -6.240526      -15.917749        3.425513
 H          -4.937754      -16.584915        2.400477
