20
 generated by VMD
 C         -12.873269      -30.128538       -8.367887
 N         -13.842964      -30.534788       -8.731296
 H         -10.869364      -30.890482       -5.057039
 H         -10.740588      -31.694201       -3.391650
 C         -10.803712      -31.828192       -4.488531
 C          -9.481129      -32.442238       -4.856262
 C         -11.985120      -32.779423       -4.910216
 C          -9.204017      -33.783401       -4.235019
 C         -11.670070      -34.120281       -4.259920
 C         -10.367268      -34.726074       -4.509672
 H          -8.623611      -31.774965       -4.779013
 H          -9.452489      -32.653427       -5.930943
 H         -12.993007      -32.386929       -4.699116
 H         -11.970403      -32.956688       -5.994846
 H          -9.019309      -33.658920       -3.131895
 H          -8.251651      -34.269379       -4.545290
 H         -12.470192      -34.812840       -4.513621
 H         -11.849109      -33.976902       -3.140874
 H         -10.224378      -35.614937       -3.932004
 H         -10.374578      -35.003094       -5.568362
