20
 generated by VMD
 C         -50.653118     -129.981415      -45.099308
 N         -51.365715     -129.219482      -44.591244
 H         -48.911629     -129.466064      -42.786331
 H         -49.993748     -130.532852      -45.720665
 C         -48.159565     -129.586746      -42.033188
 C         -47.985397     -130.939941      -41.544022
 C         -47.473061     -128.406128      -41.490913
 C         -46.513325     -131.232452      -41.193344
 C         -46.016506     -128.651962      -41.267750
 C         -45.874287     -129.947952      -40.451145
 H         -48.360493     -131.554214      -42.395554
 H         -48.615086     -131.106964      -40.757740
 H         -47.497795     -127.540100      -42.170406
 H         -48.040173     -128.003326      -40.590801
 H         -46.046440     -131.526627      -42.139381
 H         -46.385845     -132.004120      -40.455532
 H         -45.487328     -127.766869      -40.718941
 H         -45.576530     -128.664429      -42.279034
 H         -44.838314     -130.205322      -40.141804
 H         -46.447605     -129.984650      -39.544506
