20
 generated by VMD
 C         -47.947269     -139.857376      -46.065235
 N         -46.843121     -139.561050      -45.818501
 H         -51.066624     -138.642410      -45.190044
 H         -48.981503     -140.100555      -46.333954
 C         -51.972420     -139.187744      -45.423588
 C         -52.019890     -139.442993      -46.973633
 C         -53.171925     -139.034195      -44.555161
 C         -53.018414     -140.476059      -47.213852
 C         -54.292801     -140.079590      -45.035511
 C         -54.351082     -140.125061      -46.548454
 H         -51.011276     -139.798843      -47.373035
 H         -52.453148     -138.531754      -47.374573
 H         -52.930115     -139.361603      -43.542545
 H         -53.551815     -138.026062      -44.582195
 H         -52.655090     -141.418350      -46.653313
 H         -53.240429     -140.765915      -48.251911
 H         -55.126499     -139.779282      -44.516266
 H         -53.994907     -141.094147      -44.730171
 H         -55.116318     -140.843002      -46.677166
 H         -54.873642     -139.231277      -46.907684
