20
 generated by VMD
 C         -50.718407     -129.608353      -45.822979
 N         -51.043903     -130.560150      -45.300293
 H         -48.710045     -131.211487      -43.929005
 H         -50.341919     -128.638367      -46.045944
 C         -48.157116     -131.125732      -43.042881
 C         -48.352047     -132.422073      -42.368828
 C         -47.920593     -129.893097      -42.232758
 C         -47.299801     -132.578598      -41.226078
 C         -46.942551     -130.109283      -41.135983
 C         -47.207287     -131.410934      -40.298100
 H         -48.251842     -133.151199      -43.127022
 H         -49.346222     -132.512161      -41.860596
 H         -47.584789     -129.145050      -42.952957
 H         -48.776279     -129.522217      -41.813000
 H         -46.312897     -132.838882      -41.661484
 H         -47.536160     -133.466919      -40.586075
 H         -46.819813     -129.200455      -40.605759
 H         -45.926483     -130.205200      -41.615986
 H         -46.348839     -131.376282      -39.560425
 H         -48.179977     -131.148422      -39.928413
