20
 generated by VMD
 C         -70.375450     -182.390762      -63.690197
 N         -69.499016     -182.815308      -64.297775
 H         -68.472931     -180.364548      -62.379745
 H         -71.228050     -182.000305      -63.199352
 C         -67.820244     -180.536972      -61.561459
 C         -67.504326     -181.898621      -60.988930
 C         -67.272774     -179.285858      -60.763756
 C         -66.028435     -182.112381      -61.097748
 C         -65.758957     -179.539154      -60.580013
 C         -65.301926     -181.061920      -60.133148
 H         -67.933800     -182.575500      -61.757812
 H         -68.040237     -181.949890      -60.064415
 H         -67.323631     -178.273865      -61.386707
 H         -67.838318     -179.243774      -59.849689
 H         -65.653938     -181.960007      -62.124809
 H         -65.846016     -183.172379      -60.851959
 H         -65.390663     -178.847275      -59.815895
 H         -65.327263     -179.225006      -61.521843
 H         -64.167633     -181.227432      -60.145454
 H         -65.622086     -181.075165      -59.148941
