20
 generated by VMD
 C         -28.480099      -74.071281      -18.474697
 N         -29.201117      -73.385597      -17.884480
 H         -25.387465      -72.240074      -18.809351
 H         -27.617765      -74.736542      -18.724752
 C         -25.334593      -72.011948      -19.837360
 C         -24.869087      -73.167946      -20.649256
 C         -25.625854      -70.719414      -20.563162
 C         -25.215506      -73.165825      -22.028511
 C         -26.380022      -71.034698      -21.880304
 C         -25.533804      -71.923851      -22.792416
 H         -25.234512      -74.001434      -20.113548
 H         -23.745956      -73.282822      -20.488363
 H         -26.313181      -70.168144      -19.856707
 H         -24.747416      -70.140129      -20.653233
 H         -26.053860      -73.839462      -22.293097
 H         -24.391460      -73.562012      -22.644680
 H         -26.451088      -70.049149      -22.373211
 H         -27.413837      -71.592514      -21.813452
 H         -25.877630      -72.133820      -23.752632
 H         -24.687017      -71.299721      -22.927240
