20
 generated by VMD
 C         -79.552910     -205.354568      -71.728554
 N         -79.796593     -206.512466      -71.577217
 H         -76.976524     -204.079453      -71.907173
 H         -79.216736     -204.365097      -71.857895
 C         -76.347572     -204.159119      -71.050873
 C         -75.465584     -203.014633      -70.742218
 C         -76.410378     -205.299667      -70.114525
 C         -74.151169     -203.368271      -70.160774
 C         -75.229546     -205.437943      -69.144531
 C         -73.923103     -204.843399      -69.751846
 H         -75.920883     -202.324188      -70.015488
 H         -75.203880     -202.379410      -71.623840
 H         -77.153763     -205.235046      -69.410721
 H         -76.559219     -206.165512      -70.701225
 H         -74.091957     -202.827301      -69.198196
 H         -73.200539     -203.079041      -70.739677
 H         -75.052322     -206.465973      -68.949928
 H         -75.476601     -204.965027      -68.108498
 H         -73.189072     -204.945938      -68.888336
 H         -73.556679     -205.522675      -70.585045
