20
 generated by VMD
 C         -24.780895      -70.539909      -16.572460
 N         -25.097645      -70.872673      -15.515166
 H         -23.887514      -68.559639      -18.714067
 H         -24.745020      -70.249008      -17.552999
 C         -24.494202      -68.681839      -19.601357
 C         -23.846132      -69.322723      -20.706215
 C         -25.867746      -68.142563      -19.658701
 C         -24.861858      -70.294899      -21.414553
 C         -26.685509      -69.118546      -20.303524
 C         -26.154362      -69.706581      -21.679903
 H         -22.882990      -69.817749      -20.399057
 H         -23.434006      -68.659729      -21.462450
 H         -26.254692      -67.844337      -18.637901
 H         -25.685930      -67.189156      -20.294279
 H         -24.991558      -71.147972      -20.780827
 H         -24.286455      -70.609505      -22.340969
 H         -27.724401      -68.749733      -20.343401
 H         -26.767763      -70.038094      -19.710718
 H         -26.974516      -70.390678      -21.941919
 H         -26.119823      -68.925598      -22.472542
