20
 generated by VMD
 C         -12.852109      -27.391209       -1.993384
 N         -11.751233      -27.336544       -1.866997
 H         -10.414392      -26.181850       -4.684535
 H          -8.901374      -26.016672       -5.514297
 C          -9.321386      -26.316561       -4.569170
 C          -9.077848      -27.834253       -4.368072
 C          -8.721012      -25.556681       -3.349764
 C          -7.575603      -28.064701       -4.301626
 C          -7.215959      -25.792671       -3.147722
 C          -6.936103      -27.325371       -3.089432
 H          -9.637275      -28.362755       -5.237760
 H          -9.552119      -28.367388       -3.575894
 H          -8.795818      -24.464935       -3.532703
 H          -9.267924      -25.721844       -2.437822
 H          -7.010808      -27.942627       -5.267964
 H          -7.458406      -29.178368       -4.157022
 H          -6.904240      -25.311756       -2.208057
 H          -6.650242      -25.195528       -3.891387
 H          -5.851902      -27.515619       -3.205531
 H          -7.214360      -27.749413       -2.132674
