20
 generated by VMD
 C         -44.751350     -122.362038      -35.970406
 N         -44.436657     -122.398788      -34.893635
 H         -45.184334     -122.805412      -39.471115
 H         -44.809628     -122.275391      -37.081596
 C         -44.952011     -121.786072      -39.718903
 C         -43.553940     -121.405724      -39.590370
 C         -46.020985     -120.719414      -39.465679
 C         -43.251541     -120.123833      -40.324852
 C         -45.720764     -119.556015      -40.400406
 C         -44.346298     -118.950645      -40.209557
 H         -42.786816     -122.120628      -39.938110
 H         -43.367237     -121.265289      -38.466888
 H         -46.971298     -121.172974      -39.711887
 H         -46.092461     -120.393799      -38.396454
 H         -43.320755     -120.477074      -41.302399
 H         -42.232098     -119.845741      -40.159592
 H         -46.558418     -118.852341      -40.141582
 H         -45.920235     -119.753845      -41.473248
 H         -44.065929     -118.036888      -40.810486
 H         -44.408478     -118.643036      -39.143772
