20
 generated by VMD
 C         -23.149014      -55.090824      -16.840792
 N         -23.628292      -54.982952      -15.779375
 H         -19.449339      -55.402210      -15.635057
 H         -22.599154      -55.577774      -17.784586
 C         -19.223572      -56.117764      -14.813189
 C         -19.596014      -56.001312      -13.373837
 C         -18.423687      -57.258739      -15.241559
 C         -20.325336      -57.186825      -12.937142
 C         -18.919226      -58.576828      -14.569775
 C         -19.900568      -58.490566      -13.483180
 H         -20.162033      -55.084995      -13.198964
 H         -18.634613      -55.891266      -12.822111
 H         -18.540386      -57.393230      -16.268618
 H         -17.332375      -57.166462      -14.974120
 H         -21.351797      -56.962997      -13.244193
 H         -20.471811      -57.244701      -11.818042
 H         -18.097923      -59.189159      -14.246627
 H         -19.420296      -59.051964      -15.434606
 H         -20.736769      -59.112377      -13.725063
 H         -19.518023      -59.064781      -12.606125
