20
 generated by VMD
 C         -21.570236      -52.425983      -11.335542
 N         -21.494986      -52.945915      -10.322437
 H         -19.695686      -50.480049      -13.955965
 H         -21.745752      -52.050674      -12.183621
 C         -18.866011      -51.008812      -13.601510
 C         -18.247049      -51.965149      -14.519073
 C         -18.250008      -50.699921      -12.234461
 C         -16.719669      -51.948769      -14.407244
 C         -16.759127      -50.744705      -12.184494
 C         -16.125423      -51.896473      -12.989441
 H         -18.512455      -51.875221      -15.596877
 H         -18.581120      -52.965088      -14.300474
 H         -18.710735      -49.734650      -11.949530
 H         -18.567024      -51.424698      -11.482649
 H         -16.352327      -51.050789      -14.943794
 H         -16.312565      -52.873150      -14.906617
 H         -16.343939      -50.745068      -11.094659
 H         -16.370136      -49.842323      -12.631342
 H         -15.033753      -51.679672      -12.952951
 H         -16.319584      -52.857010      -12.469828
