20
 generated by VMD
 C         -78.325058     -209.708115      -77.029198
 N         -78.715416     -208.857178      -77.732681
 H         -78.936470     -210.711578      -73.286674
 H         -77.957756     -210.499100      -76.399696
 C         -78.854401     -211.654388      -72.852219
 C         -77.628326     -211.859283      -72.021751
 C         -80.100235     -212.579407      -72.968117
 C         -78.143196     -212.219101      -70.554390
 C         -80.471024     -212.783936      -71.518257
 C         -79.216789     -213.279739      -70.613144
 H         -77.065712     -210.891571      -72.041748
 H         -77.022408     -212.695160      -72.430099
 H         -80.880196     -212.216278      -73.673058
 H         -79.799690     -213.465866      -73.468758
 H         -78.478394     -211.338440      -70.046143
 H         -77.349258     -212.691467      -69.937553
 H         -81.200241     -213.556747      -71.320679
 H         -80.789886     -211.708069      -71.064148
 H         -79.566597     -213.422714      -69.582321
 H         -78.695267     -214.173767      -71.030807
