20
 generated by VMD
 C         -78.748566     -204.447693      -70.725296
 N         -79.800636     -204.231689      -70.254303
 H         -76.366364     -203.024231      -68.094093
 H         -77.816536     -204.569992      -71.325912
 C         -75.437836     -202.649017      -68.522812
 C         -75.740105     -201.669495      -69.604355
 C         -74.351013     -203.652771      -68.915352
 C         -74.761986     -201.698395      -70.734657
 C         -73.043144     -202.897552      -69.278755
 C         -73.341728     -201.805756      -70.350342
 H         -75.770500     -200.784851      -69.008507
 H         -76.754097     -201.790283      -69.969872
 H         -74.178490     -204.137375      -67.992119
 H         -74.689827     -204.320374      -69.612473
 H         -74.917778     -200.855652      -71.360344
 H         -74.964561     -202.590103      -71.354347
 H         -72.195045     -203.668930      -69.566704
 H         -72.595032     -202.355850      -68.402534
 H         -72.907333     -200.966019      -69.887932
 H         -72.805138     -202.177353      -71.244873
