20
 generated by VMD
 C         -58.783127     -160.978943      -56.725578
 N         -58.560966     -160.012039      -57.416256
 H         -58.893082     -163.878860      -54.876961
 H         -59.038654     -161.834351      -56.060833
 C         -59.735256     -163.476685      -54.368652
 C         -59.622452     -163.309540      -52.899715
 C         -61.086857     -163.420624      -54.927555
 C         -60.389217     -162.090897      -52.466831
 C         -61.923733     -162.285583      -54.297825
 C         -61.809170     -162.336868      -52.834835
 H         -58.571396     -163.164200      -52.658684
 H         -60.004715     -164.223587      -52.547619
 H         -60.997704     -163.136215      -56.055748
 H         -61.608006     -164.360001      -54.747112
 H         -59.951454     -161.217514      -52.804119
 H         -60.340286     -161.969711      -51.336067
 H         -62.980038     -162.541733      -54.494972
 H         -61.968719     -161.380112      -54.855488
 H         -62.492462     -161.673691      -52.295677
 H         -61.965290     -163.342865      -52.497524
