20
 generated by VMD
 C         -20.148687      -64.168365      -16.417421
 N         -19.899420      -63.252682      -17.125046
 H         -23.739922      -63.214336      -17.259483
 H         -20.559412      -64.900856      -15.843114
 C         -24.125870      -64.193863      -17.585346
 C         -24.503553      -64.336143      -19.078568
 C         -24.241760      -65.272385      -16.590265
 C         -24.690775      -65.829651      -19.498207
 C         -24.777601      -66.564499      -17.149168
 C         -25.503908      -66.579620      -18.498192
 H         -23.804384      -63.745239      -19.677052
 H         -25.425335      -63.763340      -19.219433
 H         -23.116898      -65.456299      -16.275654
 H         -24.919027      -64.980545      -15.771343
 H         -23.711840      -66.261406      -19.789999
 H         -25.183607      -65.755653      -20.491095
 H         -25.460657      -67.004059      -16.392597
 H         -23.849981      -67.166924      -17.163013
 H         -25.873480      -67.541916      -18.862036
 H         -26.394419      -65.938499      -18.266266
