20
 generated by VMD
 C         -47.887817     -134.243744      -47.505676
 N         -48.061676     -133.549973      -48.444595
 H         -49.758354     -134.005142      -44.058857
 H         -47.943863     -135.002136      -46.682903
 C         -50.206226     -135.025024      -43.806168
 C         -50.433075     -136.272079      -44.656677
 C         -51.129665     -134.889053      -42.636284
 C         -50.625923     -137.516907      -43.830044
 C         -51.343090     -136.223022      -41.827065
 C         -51.775517     -137.352768      -42.893948
 H         -49.603870     -136.275543      -45.397766
 H         -51.344456     -136.009583      -45.242115
 H         -50.696690     -134.076294      -41.992935
 H         -52.027615     -134.516037      -43.031445
 H         -49.692822     -137.748596      -43.361023
 H         -50.935116     -138.429520      -44.406387
 H         -52.199970     -136.050842      -41.167179
 H         -50.441818     -136.633774      -41.224483
 H         -51.939350     -138.340103      -42.366726
 H         -52.653744     -137.079407      -43.366333
