20
 generated by VMD
 C         -61.722775     -154.595886      -53.947266
 N         -62.168133     -155.559494      -53.609001
 H         -58.184357     -154.830933      -52.229229
 H         -61.258270     -153.678360      -54.197926
 C         -57.251873     -154.762451      -51.693367
 C         -57.277752     -154.341248      -50.263741
 C         -55.892506     -154.627274      -52.378464
 C         -56.009861     -154.705856      -49.519657
 C         -54.688770     -155.030838      -51.558262
 C         -54.697174     -154.379059      -50.241848
 H         -58.106884     -154.796127      -49.833458
 H         -57.547623     -153.290131      -50.076412
 H         -55.874596     -155.305893      -53.243813
 H         -55.933693     -153.595535      -52.782372
 H         -55.914677     -155.776794      -49.144615
 H         -56.092350     -154.290009      -48.536053
 H         -53.801342     -154.782242      -52.093170
 H         -54.520599     -156.126907      -51.467197
 H         -53.867420     -154.695602      -49.658855
 H         -54.762386     -153.240295      -50.220692
