20
 generated by VMD
 C         -33.540375      -96.508469      -25.324543
 N         -32.680084      -96.896873      -24.607870
 H         -34.685745      -93.593063      -27.437521
 H         -34.221600      -96.248756      -26.034470
 C         -34.762241      -93.372871      -28.511164
 C         -36.124592      -93.778214      -29.193106
 C         -33.474358      -93.203606      -29.277428
 C         -36.208012      -92.891808      -30.412779
 C         -33.775818      -92.436127      -30.546888
 C         -35.013088      -93.003197      -31.258915
 H         -36.846092      -93.428795      -28.486506
 H         -36.288712      -94.847794      -29.353004
 H         -32.740051      -92.658798      -28.704184
 H         -33.026516      -94.149963      -29.582184
 H         -36.485023      -91.796547      -30.333776
 H         -37.024090      -93.216515      -31.004995
 H         -32.929478      -92.271248      -31.221851
 H         -34.044567      -91.438522      -30.234615
 H         -34.951561      -92.295723      -32.178413
 H         -34.711720      -93.972015      -31.686028
