20
 generated by VMD
 C          -5.495447      -21.248861        1.604546
 N          -5.571483      -20.986591        2.690928
 H          -4.979147      -18.722685       -0.857581
 H          -5.617048      -20.325176       -0.116884
 C          -5.795551      -19.449625       -0.988049
 C          -5.558101      -20.051088       -2.340206
 C          -7.149171      -18.755821       -1.009758
 C          -6.574838      -21.079176       -2.636275
 C          -8.255611      -19.741354       -1.124311
 C          -8.038040      -20.596264       -2.407852
 H          -4.509348      -20.455196       -2.418435
 H          -5.558714      -19.334225       -3.096112
 H          -7.218871      -18.102367       -0.103127
 H          -7.124726      -18.151867       -1.920503
 H          -6.492380      -21.941309       -1.952766
 H          -6.400898      -21.469742       -3.646629
 H          -9.218601      -19.231583       -1.210446
 H          -8.231501      -20.399353       -0.265356
 H          -8.710442      -21.431080       -2.424826
 H          -8.371671      -20.010010       -3.237360
