20
 generated by VMD
 C         -28.480719      -86.512978      -26.597490
 N         -27.624039      -87.261322      -26.658667
 H         -30.977911      -87.460548      -25.331049
 H         -29.388216      -85.897354      -26.621092
 C         -31.971832      -87.736519      -25.651131
 C         -33.126236      -88.070663      -24.630009
 C         -32.141010      -87.841606      -27.115513
 C         -34.478012      -87.538322      -25.191366
 C         -33.541210      -87.466949      -27.498024
 C         -34.557888      -88.059692      -26.690928
 H         -32.913425      -87.751465      -23.583439
 H         -33.013950      -89.131096      -24.659016
 H         -31.308939      -87.350601      -27.703541
 H         -32.011986      -88.902855      -27.373215
 H         -34.413792      -86.422325      -25.206221
 H         -35.334415      -87.940796      -24.550858
 H         -33.744713      -87.864822      -28.475296
 H         -33.630108      -86.350365      -27.577883
 H         -35.557465      -87.821198      -26.927805
 H         -34.562580      -89.075653      -26.667465
