20
 generated by VMD
 C         -12.320187      -31.464479       -8.820441
 N         -12.401693      -30.648264       -8.079811
 H         -10.796255      -34.911957       -7.714120
 H         -12.075248      -33.928406       -6.931840
 C         -11.345654      -34.789692       -6.763771
 C         -10.388726      -34.649723       -5.634531
 C         -12.279947      -36.052673       -6.543038
 C         -11.113046      -34.485626       -4.320347
 C         -13.103581      -35.907856       -5.212142
 C         -12.108339      -35.639797       -4.003465
 H          -9.841333      -33.683498       -5.830505
 H          -9.726335      -35.504215       -5.677543
 H         -12.986523      -36.095398       -7.401069
 H         -11.632418      -36.951519       -6.570618
 H         -11.697987      -33.560490       -4.252194
 H         -10.280552      -34.596684       -3.583746
 H         -13.689675      -36.843964       -4.918069
 H         -13.771453      -35.093220       -5.217640
 H         -12.697263      -35.284729       -3.140485
 H         -11.687346      -36.552444       -3.658910
