20
 generated by VMD
 C         -44.584270     -122.357307      -36.074104
 N         -44.037296     -121.429092      -35.583153
 H         -45.151276     -122.750610      -39.716286
 H         -45.273060     -123.194366      -36.364826
 C         -44.910896     -121.658081      -39.579082
 C         -43.464931     -121.216736      -39.426689
 C         -46.055710     -120.736740      -39.297424
 C         -43.255039     -119.895096      -40.147907
 C         -45.759602     -119.401695      -39.983662
 C         -44.291046     -118.875641      -39.870224
 H         -42.700661     -121.996620      -39.813240
 H         -43.391914     -121.131020      -38.334179
 H         -46.959225     -120.948441      -39.806633
 H         -46.251076     -120.694031      -38.210194
 H         -43.420536     -120.087700      -41.167336
 H         -42.204491     -119.517982      -39.875202
 H         -46.317940     -118.639595      -39.517742
 H         -45.772839     -119.507790      -41.041843
 H         -44.069920     -118.005959      -40.566875
 H         -44.248108     -118.482147      -38.825008
