20
 generated by VMD
 C         -50.169327     -145.095596      -44.706554
 N         -49.523472     -144.228271      -44.405685
 H         -52.995445     -143.157318      -45.761944
 H         -50.739227     -145.985870      -44.952343
 C         -53.280983     -142.681671      -46.682339
 C         -52.426857     -142.438965      -47.991467
 C         -54.575226     -141.854996      -46.719917
 C         -53.345318     -142.860718      -49.220749
 C         -55.365891     -142.069489      -47.983852
 C         -54.633896     -141.953461      -49.224674
 H         -51.466713     -143.002548      -48.018955
 H         -52.105659     -141.372910      -48.363316
 H         -55.089573     -142.049637      -45.766655
 H         -54.031384     -140.802750      -46.691135
 H         -53.642250     -143.912003      -49.156799
 H         -52.777657     -142.742783      -50.145409
 H         -56.242950     -141.417679      -48.031960
 H         -55.828857     -143.139252      -47.989323
 H         -55.286118     -142.314468      -50.062927
 H         -54.403709     -140.901993      -49.586460
