20
 generated by VMD
 C         -47.916718     -134.351730      -47.352657
 N         -48.036823     -133.727646      -48.287746
 H         -49.593575     -134.381424      -44.379189
 H         -48.040531     -135.046677      -46.588097
 C         -50.259232     -135.154602      -43.905720
 C         -50.549004     -136.323959      -44.813755
 C         -51.159729     -134.941040      -42.666065
 C         -50.745026     -137.616760      -44.026520
 C         -51.354507     -136.208008      -41.908886
 C         -51.705868     -137.424332      -42.849220
 H         -49.576572     -136.376572      -45.493839
 H         -51.334175     -136.035614      -45.489574
 H         -50.887447     -134.109482      -41.911480
 H         -52.183891     -134.622131      -43.046139
 H         -49.826492     -138.078690      -43.677101
 H         -51.121822     -138.249359      -44.847488
 H         -52.205696     -136.113052      -41.263420
 H         -50.470409     -136.444962      -41.396111
 H         -51.710091     -138.288239      -42.278660
 H         -52.748363     -137.428772      -43.287666
