20
 generated by VMD
 C         -12.618472      -27.375576       -4.720397
 N         -13.490228      -28.070997       -4.666387
 H         -10.718280      -29.945314       -2.507462
 H         -10.592162      -28.473415       -3.558431
 C         -10.035640      -29.329794       -3.188377
 C          -9.472999      -30.120461       -4.408614
 C          -8.864676      -28.761778       -2.359025
 C          -8.592532      -29.180597       -5.257053
 C          -8.007994      -27.807718       -3.217696
 C          -7.450679      -28.550972       -4.422520
 H         -10.272243      -30.625668       -5.029787
 H          -8.882285      -30.913059       -4.071943
 H          -9.195572      -28.236883       -1.438642
 H          -8.218557      -29.597277       -1.947715
 H          -9.213245      -28.357168       -5.565264
 H          -8.204020      -29.641350       -6.159154
 H          -7.295138      -27.259317       -2.546492
 H          -8.685946      -27.040152       -3.510899
 H          -6.841581      -27.895676       -5.053148
 H          -6.867445      -29.434322       -3.996720
