20
 generated by VMD
 C         -47.946487     -134.443436      -47.201008
 N         -48.017200     -133.829102      -48.217361
 H         -49.806465     -134.383865      -44.508163
 H         -47.970135     -135.112534      -46.378895
 C         -50.247616     -135.207489      -44.032112
 C         -50.603943     -136.342072      -44.881889
 C         -51.221809     -135.006012      -42.766632
 C         -50.796288     -137.621155      -44.071568
 C         -51.311691     -136.261200      -41.991852
 C         -51.781658     -137.538254      -42.870239
 H         -49.865276     -136.358444      -45.606457
 H         -51.505177     -135.974945      -45.390701
 H         -50.754219     -134.370712      -42.116024
 H         -52.164841     -134.567642      -43.129288
 H         -49.831253     -138.116287      -43.719730
 H         -51.243065     -138.335022      -44.780193
 H         -52.005802     -136.091843      -41.079865
 H         -50.310703     -136.584625      -41.522820
 H         -51.592575     -138.450867      -42.145916
 H         -52.818501     -137.303299      -43.282063
