20
 generated by VMD
 C         -58.105068     -167.647446      -55.302254
 N         -57.040615     -168.038422      -55.012138
 H         -61.814140     -166.836884      -54.961491
 H         -59.069443     -167.274902      -55.685062
 C         -61.924587     -166.284546      -55.892460
 C         -62.324978     -166.974518      -57.151344
 C         -62.769424     -165.082199      -55.682934
 C         -63.745804     -167.395203      -57.113987
 C         -64.263123     -165.386948      -55.699043
 C         -64.722672     -166.181534      -56.946903
 H         -61.494656     -167.829041      -57.259533
 H         -62.174107     -166.335434      -57.999046
 H         -62.306808     -164.468781      -54.848526
 H         -62.631706     -164.482285      -56.531734
 H         -64.034454     -168.175583      -56.421051
 H         -63.991760     -167.792679      -58.097965
 H         -64.744049     -164.281158      -55.560089
 H         -64.541176     -165.914597      -54.693344
 H         -65.760017     -166.432785      -56.880184
 H         -64.628220     -165.426178      -57.709209
