20
 generated by VMD
 C         -40.938431     -101.026436      -32.850018
 N         -41.968639     -101.426193      -32.539536
 H         -38.499374     -102.952888      -32.535229
 H         -40.173725     -100.529793      -33.310715
 C         -37.522491     -102.762268      -32.116043
 C         -36.352192     -102.834946      -32.908737
 C         -37.400681     -102.809334      -30.537140
 C         -35.303593     -101.832817      -32.356510
 C         -36.114120     -102.036339      -29.940237
 C         -34.919762     -102.095734      -30.836758
 H         -36.601284     -102.580017      -33.995842
 H         -35.826576     -103.793930      -32.999771
 H         -38.236694     -102.490044      -29.987667
 H         -37.269161     -103.876259      -30.256840
 H         -35.789986     -100.812851      -32.491711
 H         -34.256626     -101.856331      -32.880627
 H         -36.005341     -102.433578      -28.803930
 H         -36.284546     -100.974075      -29.813272
 H         -34.224586     -101.245399      -30.551102
 H         -34.515347     -103.073463      -30.613417
