20
 generated by VMD
 C          -5.793311      -21.751299        1.829768
 N          -6.548841      -22.560583        1.968779
 H          -5.278639      -19.150814       -0.711689
 H          -6.591359      -20.100451       -0.003569
 C          -6.069833      -19.794657       -0.979909
 C          -5.606019      -20.941366       -1.852816
 C          -7.127908      -19.013966       -1.701151
 C          -6.807492      -21.859787       -2.282491
 C          -8.335419      -19.851646       -2.104076
 C          -7.953937      -21.079767       -2.908783
 H          -4.931906      -21.576519       -1.274225
 H          -5.162916      -20.495163       -2.724879
 H          -7.527030      -18.284805       -1.087650
 H          -6.815038      -18.401995       -2.498986
 H          -7.120212      -22.496040       -1.457152
 H          -6.471492      -22.609728       -2.996359
 H          -9.043888      -19.247421       -2.715875
 H          -8.988084      -20.079802       -1.240949
 H          -8.825898      -21.713631       -2.953522
 H          -7.711103      -20.766794       -3.920808
