20
 generated by VMD
 C         -74.085999     -201.106155      -65.794487
 N         -73.004936     -200.923706      -66.158424
 H         -75.883186     -198.406906      -67.547852
 H         -75.094055     -201.361786      -65.511047
 C         -75.130409     -197.964294      -68.153557
 C         -74.837387     -196.487106      -67.885071
 C         -74.507980     -198.839676      -69.254845
 C         -73.484482     -195.973694      -68.378754
 C         -73.363556     -197.998123      -69.876678
 C         -72.671120     -197.096313      -68.914818
 H         -74.848450     -196.218262      -66.723862
 H         -75.570938     -195.852875      -68.361679
 H         -73.930618     -199.660828      -68.764732
 H         -75.243301     -199.278290      -70.008926
 H         -72.959106     -195.393570      -67.554710
 H         -73.724358     -195.253693      -69.179939
 H         -73.794685     -197.350128      -70.663269
 H         -72.684174     -198.666519      -70.563889
 H         -72.323883     -197.667664      -68.113594
 H         -71.736977     -196.674561      -69.459854
