20
 generated by VMD
 C         -41.052967     -101.398956      -32.684570
 N         -41.994934     -101.516563      -33.318741
 H         -38.697620     -102.990425      -32.353813
 H         -40.182755     -101.562485      -32.050243
 C         -37.723648     -102.781921      -31.925081
 C         -36.480072     -102.651436      -32.933609
 C         -37.470745     -103.071938      -30.532904
 C         -35.229961     -102.267105      -32.326019
 C         -36.238476     -102.275627      -30.130220
 C         -35.029381     -102.649376      -30.932262
 H         -36.775208     -101.852409      -33.681591
 H         -36.511723     -103.604965      -33.522667
 H         -38.409492     -102.992439      -30.011600
 H         -37.138927     -104.136421      -30.395857
 H         -35.079250     -101.201584      -32.402782
 H         -34.476315     -102.756645      -32.958065
 H         -35.952755     -102.425087      -29.035589
 H         -36.667854     -101.318771      -30.208076
 H         -34.161747     -102.017426      -30.474020
 H         -34.857708     -103.725357      -30.896582
