20
 generated by VMD
 C         -40.462963     -100.181236      -30.271093
 N         -41.422821     -100.548973      -29.731203
 H         -37.217850     -101.259491      -30.512197
 H         -39.529202     -100.096794      -30.852131
 C         -36.379311     -100.591270      -30.855595
 C         -36.160000     -100.076508      -32.223438
 C         -35.416302     -100.380806      -29.784613
 C         -35.295963      -98.847229      -32.462257
 C         -34.441692      -99.186844      -30.128559
 C         -34.077927      -98.928055      -31.581440
 H         -37.155266      -99.873009      -32.727486
 H         -35.710236     -100.936806      -32.728813
 H         -36.065136     -100.114212      -28.882633
 H         -34.944290     -101.310455      -29.507011
 H         -35.942562      -98.035667      -32.416630
 H         -35.024158      -98.781166      -33.539444
 H         -33.481869      -99.455223      -29.633959
 H         -34.758743      -98.340691      -29.609697
 H         -33.540306      -97.983047      -31.718164
 H         -33.466015      -99.763733      -32.019329
