20
 generated by VMD
 C         -20.442942      -61.473812      -16.942652
 N         -19.383160      -61.082008      -17.244970
 H         -21.644308      -64.819977      -16.770367
 H         -21.316025      -61.828472      -16.467724
 C         -22.715332      -64.820885      -17.106283
 C         -23.089849      -64.252151      -18.444443
 C         -23.727018      -65.056770      -15.971292
 C         -24.474939      -64.592491      -18.818220
 C         -25.118557      -65.450089      -16.460299
 C         -25.541393      -64.505493      -17.590534
 H         -22.378407      -64.572647      -19.205866
 H         -22.864140      -63.149925      -18.507877
 H         -23.289682      -65.794373      -15.361258
 H         -23.680504      -64.074913      -15.473262
 H         -24.434189      -65.602287      -19.172237
 H         -24.711876      -63.886902      -19.610367
 H         -25.789192      -65.469604      -15.616019
 H         -25.008398      -66.421303      -16.993704
 H         -26.345882      -64.982758      -18.046131
 H         -25.677485      -63.447933      -17.254093
