20
 generated by VMD
 C         -51.174885     -130.755737      -46.363792
 N         -50.348537     -130.416641      -47.026939
 H         -48.181141     -131.996979      -44.496525
 H         -51.641010     -131.137115      -45.472752
 C         -48.084812     -132.345367      -43.447086
 C         -48.643620     -133.749268      -42.976624
 C         -48.126766     -131.243454      -42.385815
 C         -48.331402     -134.106384      -41.554749
 C         -47.886013     -131.818710      -40.934784
 C         -48.648354     -133.055298      -40.558712
 H         -48.305969     -134.593399      -43.661079
 H         -49.714138     -133.614655      -42.995266
 H         -47.453739     -130.480331      -42.552078
 H         -49.224682     -130.919373      -42.470379
 H         -47.265823     -134.373932      -41.548950
 H         -48.840195     -135.068817      -41.395542
 H         -48.108124     -130.940598      -40.158752
 H         -46.823154     -131.938950      -40.765518
 H         -48.288597     -133.354675      -39.566624
 H         -49.772030     -132.717987      -40.648167
