20
 generated by VMD
 C         -40.653599     -119.138535      -35.310265
 N         -39.659515     -118.618515      -35.130215
 H         -43.877335     -117.221695      -36.091888
 H         -41.607651     -119.691162      -35.353874
 C         -44.035294     -117.126144      -37.159527
 C         -43.023544     -117.488815      -38.190857
 C         -45.288891     -116.434120      -37.570107
 C         -43.735256     -118.394890      -39.189804
 C         -45.940414     -117.233986      -38.726288
 C         -44.925873     -117.591232      -39.792603
 H         -42.273815     -117.896156      -37.561646
 H         -42.665241     -116.580856      -38.702686
 H         -46.054062     -116.470314      -36.809525
 H         -45.136463     -115.442284      -37.879292
 H         -44.230850     -119.206406      -38.688705
 H         -42.891716     -118.646362      -39.829792
 H         -46.657684     -116.488419      -39.146957
 H         -46.447136     -118.107834      -38.369106
 H         -45.346794     -118.285484      -40.441803
 H         -44.537567     -116.701164      -40.238400
