20
 generated by VMD
 C         -38.956566     -111.482529      -36.555595
 N         -38.356113     -110.489578      -36.590065
 H         -40.109962     -114.021141      -35.090973
 H         -39.544060     -112.416237      -36.331181
 C         -41.145840     -113.779068      -35.252090
 C         -41.614246     -113.950500      -36.690918
 C         -41.888504     -112.807289      -34.229416
 C         -43.071358     -114.063255      -36.697918
 C         -43.389988     -112.835678      -34.457195
 C         -43.910957     -113.024231      -35.907005
 H         -41.047054     -114.803978      -37.158028
 H         -41.335552     -113.093369      -37.321812
 H         -41.570938     -112.994759      -33.209831
 H         -41.315830     -111.916710      -34.376007
 H         -43.289173     -115.053291      -36.387360
 H         -43.413567     -113.895050      -37.680069
 H         -43.860645     -112.061546      -33.788509
 H         -43.914314     -113.662750      -33.933937
 H         -44.992729     -113.292931      -35.800117
 H         -43.878330     -111.976624      -36.441578
