20
 generated by VMD
 C         -30.809906      -79.734062      -26.018957
 N         -30.856638      -78.585281      -26.258163
 H         -28.391439      -82.034798      -25.578333
 H         -30.645002      -80.854240      -26.193348
 C         -28.850121      -82.016937      -24.587465
 C         -28.010378      -81.562698      -23.487467
 C         -30.002388      -82.832474      -24.326902
 C         -28.657612      -81.338043      -22.202335
 C         -30.681330      -82.521751      -22.964085
 C         -29.765345      -82.395500      -21.765604
 H         -27.614267      -80.615082      -23.883497
 H         -27.246387      -82.333504      -23.360411
 H         -30.814924      -82.675011      -25.021942
 H         -29.603233      -83.937965      -24.430002
 H         -29.180634      -80.466087      -22.038214
 H         -27.749979      -81.321899      -21.544739
 H         -31.411142      -83.388481      -22.836988
 H         -31.313831      -81.564728      -22.957823
 H         -30.275312      -82.079521      -20.813087
 H         -29.175196      -83.323570      -21.613089
