20
 generated by VMD
 C          -1.865218       -9.610050       -0.120250
 N          -2.452260       -8.857195        0.399174
 H          -2.134873      -10.937748        2.757234
 H          -2.411839      -12.122490        3.991418
 C          -2.740838      -11.771624        3.024624
 C          -2.634737      -12.941846        2.124047
 C          -4.220354      -11.395930        3.231639
 C          -3.350062      -14.133735        2.732119
 C          -5.112263      -12.524294        3.729066
 C          -4.861458      -13.830669        2.995900
 H          -1.555552      -13.177732        1.998018
 H          -3.044697      -12.703270        1.119263
 H          -4.368434      -10.531754        3.944733
 H          -4.765913      -11.045014        2.286631
 H          -2.830805      -14.502524        3.668031
 H          -3.307305      -14.918777        1.970681
 H          -6.178761      -12.277407        3.689039
 H          -4.887524      -12.654710        4.808489
 H          -5.261514      -14.701672        3.525137
 H          -5.413708      -13.860516        2.081204
