20
 generated by VMD
 C         -58.554317     -152.100235      -49.307152
 N         -59.634926     -152.182587      -49.547649
 H         -55.695778     -150.153229      -47.832611
 H         -57.492607     -152.158127      -49.054768
 C         -55.244450     -149.805237      -48.731609
 C         -54.486130     -150.860138      -49.481972
 C         -54.893921     -148.295700      -49.074638
 C         -54.171867     -150.450424      -50.911175
 C         -54.795570     -147.987000      -50.599022
 C         -53.795444     -148.997025      -51.182449
 H         -54.893219     -151.879013      -49.624172
 H         -53.564899     -150.842957      -48.975677
 H         -55.663948     -147.740738      -48.640900
 H         -54.036564     -148.032639      -48.445274
 H         -55.051807     -150.732346      -51.471607
 H         -53.344730     -151.022797      -51.367229
 H         -54.319153     -146.926880      -50.645657
 H         -55.705200     -148.008270      -51.054508
 H         -53.632191     -148.783264      -52.222984
 H         -52.811890     -148.841766      -50.599991
