20
 generated by VMD
 C         -47.872520     -139.650620      -46.064751
 N         -46.737965     -139.285889      -46.010399
 H         -51.094845     -138.981659      -44.664970
 H         -48.861820     -140.132568      -46.058075
 C         -51.940426     -139.166428      -45.300163
 C         -51.927956     -139.413223      -46.748627
 C         -53.159992     -138.769852      -44.581436
 C         -52.999710     -140.367279      -47.182911
 C         -54.231007     -139.925278      -44.881042
 C         -54.341965     -140.087860      -46.445923
 H         -50.894733     -139.879593      -46.982265
 H         -52.121872     -138.426086      -47.227943
 H         -52.899796     -138.733597      -43.540970
 H         -53.434277     -137.842102      -44.982319
 H         -52.725471     -141.465393      -46.986889
 H         -53.238529     -140.296692      -48.259689
 H         -55.192150     -139.648712      -44.619724
 H         -53.923607     -140.911179      -44.401348
 H         -55.183640     -140.884109      -46.710464
 H         -54.820107     -139.071548      -46.663101
