20
 generated by VMD
 C         -15.111844      -46.295303       -5.824767
 N         -14.805971      -47.368847       -5.672140
 H         -15.649811      -45.093029       -9.486673
 H         -14.723247      -45.160957      -10.965324
 C         -15.751781      -45.083717      -10.597266
 C         -16.429604      -43.850433      -11.094882
 C         -16.490900      -46.383747      -11.079304
 C         -16.622442      -43.977070      -12.593492
 C         -16.611778      -46.532421      -12.609403
 C         -17.292377      -45.268379      -13.066099
 H         -15.710248      -43.006008      -10.919770
 H         -17.372501      -43.625168      -10.596195
 H         -15.976010      -47.179363      -10.589774
 H         -17.508581      -46.373566      -10.687810
 H         -15.596699      -44.001308      -13.006585
 H         -17.135368      -43.085365      -12.956317
 H         -17.320004      -47.368549      -12.870329
 H         -15.634359      -46.684376      -13.157933
 H         -17.368273      -45.338360      -14.183951
 H         -18.329067      -45.200222      -12.698207
