20
 generated by VMD
 C         -41.814297     -102.106102      -33.864841
 N         -40.742512     -101.893715      -34.260937
 H         -39.266853     -103.688583      -32.665443
 H         -42.763638     -102.348778      -33.434086
 C         -38.244110     -103.851677      -32.209568
 C         -37.134911     -103.664719      -33.219711
 C         -38.052795     -104.492203      -30.941460
 C         -35.972439     -103.062729      -32.304634
 C         -36.781418     -104.147453      -30.142826
 C         -35.621952     -103.951660      -31.111341
 H         -37.288849     -102.869659      -34.010483
 H         -36.988468     -104.632805      -33.637428
 H         -38.916485     -104.339607      -30.300858
 H         -37.963860     -105.569244      -31.138113
 H         -36.171585     -102.011589      -32.003551
 H         -35.122082     -103.041100      -32.995110
 H         -36.607815     -104.880013      -29.416576
 H         -37.059116     -103.180832      -29.597309
 H         -34.713253     -103.667305      -30.718122
 H         -35.411396     -104.955429      -31.529190
