20
 generated by VMD
 C         -58.356197     -151.136597      -49.347656
 N         -58.597622     -152.074219      -48.675930
 H         -55.711876     -149.767532      -47.935486
 H         -58.276257     -150.262405      -50.007809
 C         -55.103283     -149.471634      -48.759773
 C         -54.269264     -150.480789      -49.451847
 C         -55.053841     -147.961258      -48.914009
 C         -54.161949     -150.098526      -50.895283
 C         -54.827721     -147.725876      -50.419590
 C         -53.893127     -148.584503      -51.102428
 H         -54.856956     -151.427841      -49.562012
 H         -53.346077     -150.766403      -48.997391
 H         -55.889442     -147.527283      -48.479641
 H         -54.123074     -147.680008      -48.459633
 H         -55.032009     -150.304382      -51.518387
 H         -53.411659     -150.722763      -51.348202
 H         -54.619270     -146.593124      -50.503033
 H         -55.681393     -147.807129      -50.959969
 H         -53.761761     -148.335983      -52.094971
 H         -52.897446     -148.467224      -50.620968
