20
 generated by VMD
 C         -49.298180     -132.512436      -46.839973
 N         -50.314510     -131.890686      -47.166046
 H         -47.357681     -134.338531      -43.930695
 H         -48.496716     -132.952103      -46.203842
 C         -48.382164     -134.542160      -43.524025
 C         -49.087563     -135.849960      -43.899513
 C         -49.298618     -133.422272      -43.076656
 C         -49.965820     -136.339890      -42.693672
 C         -50.088295     -133.847733      -41.901737
 C         -50.811958     -135.199814      -42.135288
 H         -48.357304     -136.656555      -44.207298
 H         -49.735146     -135.615341      -44.771183
 H         -48.788834     -132.542908      -42.790607
 H         -49.896801     -133.212952      -43.896660
 H         -49.158348     -136.642090      -42.019039
 H         -50.475681     -137.242188      -42.958458
 H         -50.848557     -133.028473      -41.849125
 H         -49.625908     -133.908722      -40.843067
 H         -51.253139     -135.669235      -41.201069
 H         -51.613918     -135.145615      -42.802670
