20
 generated by VMD
 C         -58.341991     -159.029037      -58.040833
 N         -59.280495     -158.995773      -57.281033
 H         -59.204750     -160.143280      -54.739185
 H         -57.431358     -159.060471      -58.682804
 C         -59.566658     -160.749741      -53.866318
 C         -58.608372     -161.037689      -52.733513
 C         -60.672928     -161.722931      -54.081028
 C         -59.364193     -161.189240      -51.355728
 C         -61.423000     -161.739456      -52.748688
 C         -60.539165     -162.109619      -51.594170
 H         -57.900562     -160.113174      -52.641552
 H         -58.005783     -161.897598      -52.919296
 H         -61.206062     -161.416702      -54.945827
 H         -60.353165     -162.728546      -54.290371
 H         -59.752174     -160.206772      -51.052315
 H         -58.702766     -161.675659      -50.645088
 H         -62.347942     -162.366653      -52.767899
 H         -61.828506     -160.726151      -52.615860
 H         -61.194050     -162.012619      -50.592812
 H         -60.135433     -163.142380      -51.786842
