20
 generated by VMD
 C         -79.459381     -205.031982      -70.877579
 N         -80.573288     -205.398438      -70.891792
 H         -77.026100     -203.218674      -69.402885
 H         -78.501968     -204.664307      -71.046631
 C         -75.934258     -203.133743      -69.498978
 C         -75.492928     -201.897339      -70.222984
 C         -75.039360     -204.231506      -69.114136
 C         -73.971123     -201.737946      -70.485306
 C         -73.556000     -203.762924      -68.960884
 C         -73.136169     -202.910400      -70.263237
 H         -75.814743     -200.943985      -69.755966
 H         -76.010178     -201.945663      -71.225998
 H         -75.394218     -204.715866      -68.255646
 H         -75.108589     -204.919464      -69.886528
 H         -73.687195     -200.916962      -69.781441
 H         -73.809784     -201.386597      -71.568787
 H         -72.904800     -204.625244      -68.972504
 H         -73.430267     -203.276733      -67.947144
 H         -72.108551     -202.598450      -70.372406
 H         -73.274605     -203.576859      -71.059265
