20
 generated by VMD
 C         -49.815212     -141.681259      -45.257523
 N         -49.385231     -142.797775      -45.245102
 H         -51.630211     -139.050735      -46.026672
 H         -50.355659     -140.732971      -45.346481
 C         -52.264107     -139.860611      -46.374763
 C         -52.444160     -140.102936      -47.845078
 C         -53.279209     -140.406586      -45.552727
 C         -53.056263     -141.397812      -48.325764
 C         -53.803516     -141.784912      -45.992359
 C         -54.183651     -141.806854      -47.488731
 H         -51.436115     -139.987045      -48.238091
 H         -53.025211     -139.226990      -48.252453
 H         -53.049446     -140.462296      -44.499451
 H         -54.240662     -139.812180      -45.368790
 H         -52.409054     -142.333435      -48.349617
 H         -53.325726     -141.211349      -49.441837
 H         -54.639267     -142.033615      -45.424042
 H         -53.047089     -142.525269      -45.800915
 H         -54.774521     -142.729507      -47.843750
 H         -54.974056     -141.006577      -47.541298
