20
 generated by VMD
 C         -78.401772     -209.800323      -77.268112
 N         -79.007416     -208.903625      -76.940239
 H         -78.457993     -210.391617      -73.532776
 H         -77.819916     -210.540894      -77.638649
 C         -78.572784     -211.257126      -72.821541
 C         -77.425041     -211.661560      -71.961258
 C         -79.793526     -212.127136      -72.931236
 C         -78.152885     -211.918610      -70.476578
 C         -80.355965     -212.644043      -71.595253
 C         -79.168060     -213.112091      -70.649475
 H         -76.668076     -210.865005      -71.818634
 H         -76.870995     -212.541534      -72.407074
 H         -80.528305     -211.468674      -73.385689
 H         -79.672760     -212.930420      -73.634224
 H         -78.763535     -211.083755      -70.024002
 H         -77.352417     -212.075195      -69.733208
 H         -81.045059     -213.441956      -71.712364
 H         -80.735405     -211.711060      -70.974869
 H         -79.521988     -213.267395      -69.639107
 H         -78.651718     -214.000717      -71.104874
