20
 generated by VMD
 C         -40.608585     -119.083313      -35.378147
 N         -39.646812     -118.557465      -35.103817
 H         -44.072376     -117.519157      -36.047134
 H         -41.628696     -119.365227      -35.770542
 C         -43.989437     -117.018219      -37.010693
 C         -43.080338     -117.470909      -38.126667
 C         -45.266258     -116.403870      -37.553974
 C         -43.756298     -118.327667      -39.155098
 C         -45.901863     -117.239441      -38.750244
 C         -44.922443     -117.608429      -39.821453
 H         -42.175255     -118.069832      -37.831783
 H         -42.563782     -116.609032      -38.548988
 H         -45.918999     -116.160873      -36.692589
 H         -44.893311     -115.407684      -38.022255
 H         -44.141300     -119.296135      -38.719223
 H         -43.143623     -118.623444      -40.010227
 H         -46.733498     -116.588631      -39.044468
 H         -46.195229     -118.183556      -38.127861
 H         -45.484211     -118.253708      -40.588020
 H         -44.413242     -116.683998      -40.320087
