20
 generated by VMD
 C         -78.178513     -210.643173      -76.022652
 N         -77.118263     -210.919174      -76.364449
 H         -80.229675     -213.407852      -75.278900
 H         -79.183609     -210.531052      -75.717239
 C         -80.177826     -213.399612      -74.178787
 C         -78.758453     -213.503235      -73.615028
 C         -81.366180     -214.040817      -73.496719
 C         -78.664246     -213.250916      -72.054970
 C         -81.272202     -213.690048      -72.000877
 C         -79.829590     -214.117065      -71.452705
 H         -78.115547     -212.741745      -74.066803
 H         -78.265266     -214.523911      -73.876404
 H         -82.267639     -213.492065      -73.718506
 H         -81.434296     -215.194290      -73.712387
 H         -78.860275     -212.183609      -71.835892
 H         -77.646057     -213.523026      -71.770332
 H         -82.038284     -214.110107      -71.434937
 H         -81.461678     -212.578018      -71.814270
 H         -79.798248     -214.198975      -70.344666
 H         -79.779327     -215.123245      -71.718430
