20
 generated by VMD
 C         -69.075134     -184.934113      -66.545921
 N         -69.433792     -185.319244      -67.602989
 H         -69.810188     -182.931015      -63.164173
 H         -68.734337     -184.534286      -65.650131
 C         -69.331047     -183.377457      -62.331688
 C         -69.818611     -184.473160      -61.556221
 C         -68.091202     -182.760254      -61.716690
 C         -68.648506     -185.439972      -61.367138
 C         -67.016251     -183.625198      -61.212143
 C         -67.619705     -184.730759      -60.436062
 H         -70.599945     -184.946075      -62.094933
 H         -70.130493     -184.203934      -60.507351
 H         -67.673294     -181.986954      -62.402672
 H         -68.417145     -182.170212      -60.891930
 H         -68.019020     -185.756027      -62.254917
 H         -69.000259     -186.399933      -60.900105
 H         -66.237572     -182.926468      -60.772713
 H         -66.357178     -184.174606      -61.899548
 H         -66.816391     -185.392822      -60.243504
 H         -67.945267     -184.367798      -59.393772
