20
 generated by VMD
 C         -38.718723      -99.105072      -27.097712
 N         -37.757107      -99.150665      -26.464798
 H         -37.134113      -97.408501      -29.962843
 H         -39.761105      -99.105751      -27.544859
 C         -36.184608      -97.003395      -30.477884
 C         -35.473961      -97.483574      -31.683020
 C         -35.292145      -96.165215      -29.517908
 C         -34.386189      -96.587204      -32.254448
 C         -34.171837      -95.377808      -30.125946
 C         -33.361656      -96.283707      -31.152828
 H         -36.207146      -97.553894      -32.489368
 H         -35.151627      -98.537857      -31.464115
 H         -36.048119      -95.592979      -28.974222
 H         -34.847179      -96.780472      -28.721399
 H         -34.746426      -95.548622      -32.622417
 H         -33.818611      -97.124451      -33.065254
 H         -33.461510      -94.871147      -29.460627
 H         -34.589928      -94.487312      -30.708710
 H         -32.426815      -95.669815      -31.521973
 H         -33.005257      -97.155235      -30.722664
