20
 generated by VMD
 C         -27.444960      -86.662895      -26.518444
 N         -28.455902      -86.100372      -26.757334
 H         -31.096968      -85.898903      -25.441971
 H         -26.517963      -87.001205      -26.254805
 C         -31.965149      -86.600082      -25.619547
 C         -32.820004      -87.277626      -24.501244
 C         -32.048630      -87.302246      -26.932949
 C         -34.259048      -87.439377      -24.905439
 C         -33.487667      -87.489296      -27.341053
 C         -34.262035      -88.166412      -26.210667
 H         -32.583397      -86.611870      -23.644373
 H         -32.466454      -88.182671      -24.192818
 H         -31.578072      -86.677170      -27.723267
 H         -31.485785      -88.266548      -26.978800
 H         -34.800350      -86.473007      -25.121286
 H         -34.850620      -88.211792      -24.243795
 H         -33.431576      -88.090897      -28.190411
 H         -33.918327      -86.490158      -27.578339
 H         -35.237110      -88.389374      -26.616615
 H         -33.913303      -89.153175      -26.001263
