20
 generated by VMD
 C         -29.924238      -91.818123      -25.515072
 N         -29.088223      -92.255424      -24.812105
 H         -33.045967      -89.698463      -26.451578
 H         -30.804796      -91.570724      -26.088255
 C         -33.291183      -90.211563      -27.340929
 C         -34.116985      -91.455208      -27.343456
 C         -33.246574      -89.468033      -28.684221
 C         -35.543537      -91.064774      -27.663889
 C         -34.596718      -89.053375      -29.044830
 C         -35.559765      -90.318703      -28.932587
 H         -34.181633      -92.131134      -26.446222
 H         -33.829929      -92.249077      -28.120756
 H         -32.551842      -88.679932      -28.660196
 H         -32.923965      -90.147583      -29.462917
 H         -35.860348      -90.462334      -26.779394
 H         -36.051632      -91.983788      -27.566076
 H         -34.859699      -88.527290      -29.962696
 H         -34.925777      -88.365700      -28.230431
 H         -36.503830      -89.840149      -29.294054
 H         -35.305237      -91.082039      -29.736275
