20
 generated by VMD
 C         -78.703186     -208.363266      -76.877281
 N         -79.063744     -208.350861      -75.760132
 H         -79.068352     -209.343765      -73.355225
 H         -78.524460     -208.398605      -77.883461
 C         -78.607559     -209.945541      -72.555710
 C         -77.237228     -209.564728      -72.001770
 C         -79.078888     -211.328812      -71.947540
 C         -76.990608     -209.727036      -70.507072
 C         -79.063591     -211.190933      -70.463455
 C         -77.667152     -210.991974      -70.011162
 H         -77.079491     -208.480011      -72.208069
 H         -76.524391     -210.291061      -72.566261
 H         -80.135513     -211.624146      -72.212852
 H         -78.450592     -212.189026      -72.252090
 H         -77.665108     -208.960785      -70.102219
 H         -75.943993     -209.623825      -70.201599
 H         -79.444427     -212.267899      -70.056564
 H         -79.762421     -210.512329      -70.071854
 H         -77.790138     -210.767502      -68.911819
 H         -76.907539     -211.764542      -70.140007
