20
 generated by VMD
 C         -58.000977     -168.336044      -55.037098
 N         -56.897530     -168.565552      -54.897854
 H         -61.485195     -167.174896      -55.559910
 H         -59.053547     -168.181976      -55.208729
 C         -62.407448     -166.975677      -56.067303
 C         -62.692619     -167.629318      -57.407497
 C         -63.026299     -165.772629      -55.593876
 C         -64.165169     -167.472946      -57.742329
 C         -64.498154     -165.866211      -55.979168
 C         -64.675926     -166.085236      -57.452919
 H         -62.255226     -168.743073      -57.454666
 H         -62.076927     -167.154419      -58.090878
 H         -62.902081     -165.873245      -54.440350
 H         -62.445354     -164.921387      -55.990089
 H         -64.771629     -168.278091      -57.244328
 H         -64.312729     -167.643433      -58.870502
 H         -64.935104     -164.885651      -55.632313
 H         -65.170837     -166.446976      -55.417118
 H         -65.694550     -166.091339      -57.684250
 H         -64.112396     -165.446854      -58.087761
