20
 generated by VMD
 C         -65.323296     -177.172989      -56.267162
 N         -65.953804     -177.223495      -55.298019
 H         -64.150764     -174.823975      -59.111530
 H         -64.669815     -177.162598      -57.160221
 C         -64.381569     -173.886749      -59.523331
 C         -65.349625     -173.048447      -58.703865
 C         -63.598469     -173.435684      -60.646973
 C         -64.725723     -171.495178      -58.662098
 C         -63.095741     -171.994217      -60.664616
 C         -64.201859     -170.998932      -60.107925
 H         -65.339790     -173.533661      -57.787834
 H         -66.320107     -173.257095      -59.263412
 H         -62.673599     -174.092056      -60.751244
 H         -64.006989     -173.637146      -61.622166
 H         -63.859386     -171.467865      -57.890354
 H         -65.536156     -170.802032      -58.277397
 H         -62.868801     -171.703079      -61.714516
 H         -62.208870     -171.925461      -60.107792
 H         -63.764252     -169.958817      -60.064449
 H         -65.009438     -170.979691      -60.810608
