20
 generated by VMD
 C         -49.997780     -143.935623      -44.366100
 N         -49.282398     -143.667404      -45.257442
 H         -52.093956     -141.574860      -45.694965
 H         -50.640057     -144.021011      -43.512672
 C         -52.788273     -141.790466      -46.485237
 C         -52.200066     -141.799515      -47.820564
 C         -54.279629     -141.388428      -46.317524
 C         -53.238220     -142.371201      -48.880913
 C         -55.152378     -141.912994      -47.407433
 C         -54.609322     -141.708481      -48.771931
 H         -51.392773     -142.477463      -47.817764
 H         -51.683197     -140.831390      -48.013161
 H         -54.730198     -141.582748      -45.366264
 H         -54.490406     -140.317505      -46.279507
 H         -53.326870     -143.410904      -48.775314
 H         -52.899044     -142.216934      -49.887093
 H         -56.058193     -141.414551      -47.250263
 H         -55.304260     -142.987091      -47.382687
 H         -55.249741     -142.198624      -49.463074
 H         -54.491512     -140.700836      -48.967358
