20
 generated by VMD
 C         -57.957298     -150.644318      -48.728481
 N         -57.988956     -151.776764      -48.632290
 H         -55.056629     -149.523590      -47.576607
 H         -57.784351     -149.614288      -48.845741
 C         -55.050003     -149.217773      -48.662502
 C         -54.265381     -150.278534      -49.480556
 C         -55.054577     -147.763107      -48.866737
 C         -54.185459     -149.857071      -50.981930
 C         -55.047607     -147.469070      -50.349182
 C         -53.875751     -148.283325      -51.027889
 H         -54.769493     -151.246094      -49.425941
 H         -53.245365     -150.375687      -49.038883
 H         -55.947315     -147.314468      -48.331928
 H         -54.102070     -147.368881      -48.561451
 H         -55.057301     -150.147095      -51.581146
 H         -53.301952     -150.371872      -51.341236
 H         -55.120403     -146.347717      -50.665421
 H         -55.991367     -147.756149      -50.772522
 H         -53.788670     -147.936966      -52.096558
 H         -52.915680     -147.986176      -50.603065
