20
 generated by VMD
 C         -23.327080      -54.650299      -14.907026
 N         -23.672838      -53.901497      -15.756351
 H         -20.229815      -54.767601      -15.473518
 H         -22.469574      -55.129707      -14.337785
 C         -19.631012      -55.287136      -14.775037
 C         -19.110189      -54.627865      -13.419847
 C         -18.981661      -56.554092      -15.272620
 C         -18.522837      -55.558887      -12.364060
 C         -18.767128      -57.414925      -14.042726
 C         -17.851967      -56.737877      -13.082492
 H         -20.051723      -54.091053      -13.057213
 H         -18.434870      -53.735439      -13.598145
 H         -19.592005      -57.184502      -15.983178
 H         -18.056543      -56.340469      -15.933764
 H         -19.358379      -56.010471      -11.846597
 H         -17.825848      -55.111931      -11.651841
 H         -18.362886      -58.329926      -14.340337
 H         -19.713409      -57.636944      -13.515375
 H         -17.646355      -57.519455      -12.326745
 H         -16.980625      -56.447594      -13.679581
