20
 generated by VMD
 C         -60.820118     -153.291611      -52.349487
 N         -60.906765     -153.274384      -51.232460
 H         -57.545692     -153.824997      -50.728565
 H         -60.694595     -153.258514      -53.391792
 C         -56.570900     -153.362244      -50.731121
 C         -55.676540     -153.731323      -49.568169
 C         -56.430260     -152.065872      -51.404232
 C         -54.273308     -153.286057      -49.847271
 C         -55.008198     -151.805237      -51.761593
 C         -54.190819     -151.873535      -50.401546
 H         -55.673470     -154.807205      -49.330456
 H         -56.207977     -153.285156      -48.663723
 H         -57.145828     -151.942215      -52.238937
 H         -56.713516     -151.341827      -50.664608
 H         -53.895435     -153.990356      -50.583702
 H         -53.889568     -153.366302      -48.794651
 H         -54.803905     -150.886780      -52.415649
 H         -54.564362     -152.689499      -52.469463
 H         -53.061115     -151.700348      -50.758205
 H         -54.590561     -151.134125      -49.643486
