20
 generated by VMD
 C         -61.171955     -156.055679      -54.658524
 N         -60.573231     -156.040634      -55.654911
 H         -59.439968     -155.533600      -51.591045
 H         -61.734901     -156.283844      -53.732899
 C         -58.452812     -155.929977      -51.343517
 C         -57.598099     -154.836441      -50.720695
 C         -57.820114     -157.081833      -52.181709
 C         -56.327541     -155.393051      -50.069256
 C         -56.359512     -157.417755      -51.606430
 C         -55.512928     -156.275650      -51.139057
 H         -58.134323     -154.233322      -50.006458
 H         -57.372177     -154.139938      -51.617191
 H         -58.334183     -157.975281      -52.239590
 H         -57.704517     -156.655640      -53.148949
 H         -56.440079     -156.027725      -49.232391
 H         -55.899761     -154.487000      -49.860264
 H         -55.983219     -158.096710      -52.316010
 H         -56.523861     -158.028809      -50.685661
 H         -54.622288     -156.539139      -50.658287
 H         -55.190197     -155.611832      -51.992783
