20
 generated by VMD
 C          -7.047671      -23.256495        2.888299
 N          -6.187795      -22.618288        2.613561
 H          -6.610641      -21.530413       -0.155342
 H          -8.229539      -21.844418       -0.990063
 C          -7.172616      -21.441813       -1.138492
 C          -6.457884      -22.265457       -2.141344
 C          -7.354737      -19.971426       -1.588500
 C          -7.071366      -22.166424       -3.514025
 C          -7.967907      -19.816408       -3.004524
 C          -7.212545      -20.700468       -3.961217
 H          -6.384461      -23.272532       -1.814905
 H          -5.351695      -22.037836       -2.156558
 H          -7.927799      -19.481428       -0.842971
 H          -6.324357      -19.638178       -1.666389
 H          -8.092767      -22.592525       -3.498189
 H          -6.449850      -22.707993       -4.245310
 H          -7.920870      -18.731937       -3.225142
 H          -8.992206      -20.251289       -2.976385
 H          -7.590827      -20.638325       -5.007286
 H          -6.126076      -20.380968       -4.013550
