20
 generated by VMD
 C         -67.873627     -185.198059      -68.092949
 N         -67.593391     -185.555771      -67.017059
 H         -69.749741     -185.905334      -64.671051
 H         -68.096336     -184.826782      -69.045624
 C         -69.899406     -186.172577      -63.630043
 C         -70.910316     -185.503250      -62.627296
 C         -69.189194     -187.323380      -63.054657
 C         -70.198914     -185.211151      -61.333355
 C         -68.725815     -187.228729      -61.591835
 C         -69.789146     -186.524078      -60.688332
 H         -71.793770     -186.075867      -62.622448
 H         -71.281052     -184.587875      -63.116402
 H         -69.756538     -188.243622      -63.176731
 H         -68.297508     -187.633209      -63.661747
 H         -70.632263     -184.468018      -60.718109
 H         -69.267632     -184.672318      -61.618027
 H         -67.735435     -186.728531      -61.560783
 H         -68.555923     -188.163147      -61.041267
 H         -70.702980     -187.084869      -60.425682
 H         -69.152672     -186.409363      -59.805878
