20
 generated by VMD
 C         -30.628572      -75.460991      -21.196165
 N         -31.730455      -75.246887      -21.016006
 H         -27.918884      -74.647911      -20.068062
 H         -29.607983      -75.673080      -21.716215
 C         -26.885559      -74.813271      -20.428316
 C         -26.603476      -76.036789      -21.301907
 C         -25.898581      -73.713364      -20.403467
 C         -26.026054      -75.531799      -22.699167
 C         -25.367884      -73.362808      -21.777506
 C         -24.886679      -74.561974      -22.618811
 H         -27.683750      -76.520584      -21.471397
 H         -25.828136      -76.645523      -20.828875
 H         -26.331436      -72.937645      -19.943239
 H         -25.039099      -73.844574      -19.782415
 H         -26.870943      -75.076004      -23.273272
 H         -25.703388      -76.423744      -23.266962
 H         -24.600088      -72.638855      -21.815865
 H         -26.185320      -72.931747      -22.300234
 H         -24.343006      -74.292168      -23.536625
 H         -24.127499      -75.194397      -22.151257
