20
 generated by VMD
 C          -1.906879      -14.003652        2.241321
 N          -1.718534      -14.943991        1.664785
 H          -3.738625      -16.758810        0.680411
 H          -4.571826      -17.148823       -0.888578
 C          -4.725965      -16.906687        0.194552
 C          -5.609282      -15.639287        0.310530
 C          -5.423866      -18.083904        0.880513
 C          -6.875749      -15.914755       -0.459460
 C          -6.731234      -18.380552        0.202567
 C          -7.620486      -17.186943        0.085277
 H          -5.103437      -14.757682       -0.054327
 H          -5.753468      -15.511833        1.413947
 H          -4.670595      -18.966036        0.747157
 H          -5.655242      -17.874668        2.017255
 H          -6.818033      -15.967009       -1.526878
 H          -7.518420      -15.078237       -0.335949
 H          -7.178537      -19.178438        0.778106
 H          -6.547485      -18.822412       -0.761367
 H          -8.441992      -17.343697       -0.659645
 H          -8.178842      -16.924498        1.017135
