20
 generated by VMD
 C         -80.161339     -206.853790      -74.033577
 N         -80.573593     -206.928558      -75.102325
 H         -77.008827     -207.191315      -73.008224
 H         -79.895363     -206.658813      -73.014008
 C         -76.631134     -207.575821      -72.047989
 C         -75.333099     -207.062988      -71.374748
 C         -77.268578     -208.675247      -71.300789
 C         -75.497520     -206.874222      -69.860809
 C         -77.576164     -208.298355      -69.952347
 C         -76.194588     -207.988449      -69.203049
 H         -75.014816     -206.111053      -71.832664
 H         -74.569275     -207.881317      -71.628304
 H         -78.081406     -209.155472      -71.815468
 H         -76.555984     -209.474365      -71.178711
 H         -75.968643     -205.876999      -69.698395
 H         -74.522339     -206.712997      -69.364456
 H         -78.087234     -209.038818      -69.441483
 H         -78.165878     -207.363693      -69.806892
 H         -76.489616     -207.631790      -68.135452
 H         -75.714859     -208.952057      -69.061745
