20
 generated by VMD
 C         -35.191784      -97.914124      -26.176092
 N         -36.311001      -97.561729      -26.221020
 H         -35.715263      -95.149834      -27.903229
 H         -34.217136      -98.155701      -26.323639
 C         -35.341820      -94.956215      -28.892359
 C         -35.774464      -95.805618      -30.059776
 C         -34.086555      -94.258377      -29.026670
 C         -35.525787      -95.147057      -31.401604
 C         -33.882050      -93.598915      -30.367630
 C         -34.116119      -94.632195      -31.557190
 H         -36.891701      -95.968956      -30.071056
 H         -35.314575      -96.822113      -29.947870
 H         -34.224941      -93.532585      -28.185793
 H         -33.212666      -94.825027      -28.732769
 H         -36.281254      -94.346359      -31.520018
 H         -35.778595      -95.879982      -32.145214
 H         -32.873920      -93.145233      -30.590061
 H         -34.637081      -92.868668      -30.423063
 H         -34.124016      -94.152336      -32.415268
 H         -33.357510      -95.463264      -31.582706
