20
 generated by VMD
 C         -40.265915     -101.058060      -32.162014
 N         -41.082577     -100.776718      -31.414938
 H         -37.699764     -103.767647      -32.364201
 H         -39.422539     -101.266602      -32.850441
 C         -37.377689     -102.796173      -31.917215
 C         -36.045067     -102.409370      -32.858234
 C         -37.379761     -102.421906      -30.515959
 C         -35.255966     -101.142555      -32.444794
 C         -36.474369     -101.102974      -30.229578
 C         -35.112675     -101.042465      -30.946123
 H         -36.316383     -102.512520      -33.936489
 H         -35.364330     -103.246429      -32.720970
 H         -38.349468     -102.215569      -30.034887
 H         -36.888176     -103.305885      -29.963182
 H         -35.654209     -100.325874      -32.956902
 H         -34.316189     -101.288734      -32.910610
 H         -36.391033     -101.028702      -29.117212
 H         -37.060215     -100.255516      -30.472639
 H         -34.677315     -100.054077      -30.742008
 H         -34.561420     -101.843658      -30.516432
