20
 generated by VMD
 C         -31.048666      -78.372772      -26.204044
 N         -31.619795      -77.559036      -25.611439
 H         -29.313082      -77.526115      -22.763176
 H         -30.556643      -78.907951      -26.925539
 C         -28.776506      -78.443962      -22.690069
 C         -27.359932      -78.645592      -23.035471
 C         -29.603304      -79.569016      -22.083977
 C         -26.619802      -79.669266      -22.186455
 C         -28.824945      -80.649658      -21.370630
 C         -27.440813      -80.909904      -21.934519
 H         -26.871183      -77.678116      -22.730555
 H         -27.181984      -78.999443      -24.135670
 H         -30.173853      -79.145432      -21.347721
 H         -30.309679      -80.130951      -22.737955
 H         -26.240948      -79.315521      -21.205343
 H         -25.636652      -79.779297      -22.739864
 H         -29.379288      -81.559441      -21.302021
 H         -28.656492      -80.445953      -20.404871
 H         -26.895115      -81.536377      -21.203545
 H         -27.544172      -81.537193      -22.824596
