20
 generated by VMD
 C         -77.349731     -202.907104      -69.357979
 N         -77.662064     -203.749802      -68.602089
 H         -74.935730     -201.491165      -67.091232
 H         -77.001457     -202.237839      -70.200623
 C         -74.865860     -201.441284      -68.126999
 C         -75.192902     -199.993729      -68.511765
 C         -73.897644     -202.335709      -68.848984
 C         -74.683990     -199.531174      -69.868698
 C         -73.221619     -201.567673      -70.048378
 C         -74.099533     -200.612976      -70.776924
 H         -74.773376     -199.326660      -67.706184
 H         -76.258911     -199.871445      -68.530045
 H         -73.183662     -202.850052      -68.302872
 H         -74.471329     -203.162460      -69.257874
 H         -74.000000     -198.708084      -69.656448
 H         -75.458542     -198.960739      -70.441681
 H         -72.826630     -202.289810      -70.791885
 H         -72.417999     -200.904373      -69.751991
 H         -73.538696     -200.179749      -71.701988
 H         -74.900566     -201.227142      -71.190628
