20
 generated by VMD
 C         -22.768526      -55.259106      -15.147950
 N         -22.927794      -55.125702      -16.292849
 H         -19.561050      -54.309856      -15.365037
 H         -22.691446      -55.286537      -14.140404
 C         -19.259253      -55.272732      -14.887256
 C         -18.956841      -55.162350      -13.361585
 C         -19.601528      -56.623085      -15.462251
 C         -19.490156      -56.308613      -12.448047
 C         -19.345247      -57.816746      -14.592808
 C         -19.058529      -57.659588      -13.159265
 H         -19.288324      -54.210167      -12.926825
 H         -17.839437      -55.013992      -13.328375
 H         -20.563509      -56.647175      -15.906157
 H         -19.064194      -56.738544      -16.471561
 H         -20.594313      -56.278885      -12.416665
 H         -19.074949      -56.205326      -11.429590
 H         -18.502886      -58.398376      -15.038505
 H         -20.220255      -58.450378      -14.694267
 H         -19.616072      -58.408600      -12.630960
 H         -18.004898      -57.770504      -12.888124
