20
 generated by VMD
 C         -15.211596      -46.774269       -6.201785
 N         -15.101913      -47.208035       -5.172549
 H         -16.130657      -46.027122       -9.741323
 H         -14.851077      -45.819607      -10.860325
 C         -15.941416      -45.824562      -10.759169
 C         -16.400679      -44.360958      -10.977327
 C         -16.754900      -46.859016      -11.515228
 C         -16.456177      -44.112743      -12.489819
 C         -16.782104      -46.596622      -12.993173
 C         -17.257902      -45.197018      -13.286208
 H         -15.693274      -43.705322      -10.471395
 H         -17.413965      -44.227905      -10.557257
 H         -16.374746      -47.849388      -11.299834
 H         -17.830593      -46.783333      -11.237408
 H         -15.465968      -44.137726      -12.941086
 H         -16.931692      -43.127808      -12.628334
 H         -17.428656      -47.269806      -13.455125
 H         -15.743386      -46.717815      -13.339147
 H         -17.189968      -45.079113      -14.347113
 H         -18.339106      -45.072014      -13.065359
