20
 generated by VMD
 C         -78.950096     -208.069519      -76.193565
 N         -78.378021     -207.707016      -75.235725
 H         -79.182526     -210.022034      -73.404106
 H         -79.384476     -208.310257      -77.138733
 C         -78.703415     -210.128784      -72.411163
 C         -77.469978     -209.305557      -72.455788
 C         -78.876640     -211.365646      -71.542580
 C         -77.060593     -208.984619      -71.034317
 C         -78.661980     -210.790726      -70.062492
 C         -77.197891     -210.188416      -70.011177
 H         -77.714172     -208.320312      -72.882614
 H         -76.684219     -209.897125      -73.030754
 H         -79.925537     -211.672806      -71.474365
 H         -78.299942     -212.267654      -71.880203
 H         -77.740463     -208.238022      -70.524948
 H         -76.017464     -208.593918      -71.065422
 H         -78.924782     -211.708237      -69.382843
 H         -79.361961     -210.070877      -69.725365
 H         -77.025421     -210.018326      -68.946953
 H         -76.415085     -210.881058      -70.342079
