20
 generated by VMD
 C         -59.438698     -158.394730      -57.450756
 N         -58.451912     -158.381729      -58.017998
 H         -59.865349     -158.715485      -54.050610
 H         -60.334373     -158.410355      -56.860313
 C         -59.830872     -159.600418      -53.369568
 C         -58.637398     -159.538879      -52.378880
 C         -60.688435     -160.788742      -53.431534
 C         -58.552639     -160.550140      -51.239044
 C         -60.662708     -161.503571      -52.081718
 C         -59.302353     -161.822342      -51.518188
 H         -58.551144     -158.632080      -51.883930
 H         -57.780987     -159.702133      -53.013889
 H         -61.757191     -160.481522      -53.508995
 H         -60.374260     -161.202515      -54.410839
 H         -58.744286     -160.049667      -50.330349
 H         -57.436470     -160.641251      -50.958202
 H         -61.176086     -162.455734      -52.321842
 H         -61.307518     -160.955109      -51.300316
 H         -59.209579     -162.557907      -50.747868
 H         -58.797596     -162.409622      -52.276539
