20
 generated by VMD
 C         -18.366148      -49.006241       -7.456146
 N         -19.153248      -49.784565       -7.658652
 H         -16.181829      -47.480656      -10.104994
 H         -16.653305      -48.916344      -10.976510
 C         -16.392675      -47.861942      -11.082388
 C         -15.199547      -47.754261      -11.956061
 C         -17.635635      -47.159607      -11.573406
 C         -15.466086      -47.965618      -13.446857
 C         -17.955444      -47.707993      -12.986436
 C         -16.791357      -47.392918      -13.988148
 H         -14.387447      -48.413773      -11.675352
 H         -14.874557      -46.755730      -11.688706
 H         -18.471251      -47.407158      -10.869712
 H         -17.621510      -46.052940      -11.524039
 H         -15.506416      -49.058788      -13.614635
 H         -14.609332      -47.740307      -14.116693
 H         -18.834705      -47.258324      -13.378082
 H         -18.076990      -48.867340      -13.053418
 H         -16.969814      -47.866993      -14.964622
 H         -16.745640      -46.322678      -14.115649
