20
 generated by VMD
 C         -74.945068     -201.846741      -66.464584
 N         -74.489441     -201.271347      -65.585052
 H         -76.330681     -199.327225      -68.924095
 H         -75.170944     -202.342728      -67.363029
 C         -75.423019     -198.698853      -69.030891
 C         -74.969376     -197.498077      -68.275925
 C         -74.338181     -199.404160      -69.889503
 C         -73.463417     -197.256195      -68.049011
 C         -73.284920     -198.398956      -70.256226
 C         -72.461334     -197.806549      -69.060028
 H         -75.446899     -197.470184      -67.320168
 H         -75.365303     -196.568481      -68.947342
 H         -73.968025     -200.315002      -69.422806
 H         -74.800240     -199.921814      -70.806641
 H         -73.140663     -197.597748      -67.021080
 H         -73.348152     -196.164261      -67.892761
 H         -73.863235     -197.564682      -70.771935
 H         -72.611397     -198.757889      -71.001587
 H         -71.875732     -198.674713      -68.600021
 H         -71.758888     -197.001099      -69.439674
