20
 generated by VMD
 C         -48.763298     -126.457001      -38.682461
 N         -49.416050     -127.374687      -38.504219
 H         -46.270832     -123.834984      -38.607109
 H         -48.192852     -125.542595      -38.663609
 C         -45.653629     -123.640053      -39.385296
 C         -44.495159     -124.443382      -39.637299
 C         -45.720551     -122.301582      -40.089668
 C         -44.008049     -124.520935      -41.049717
 C         -45.315044     -122.372475      -41.548756
 C         -44.138119     -123.264626      -41.910149
 H         -44.772934     -125.414474      -39.214603
 H         -43.557987     -124.083847      -39.108086
 H         -46.679062     -121.883446      -39.872173
 H         -45.080124     -121.599792      -39.522167
 H         -44.740562     -125.240120      -41.438393
 H         -43.075264     -125.046425      -41.309612
 H         -45.016045     -121.420013      -42.006275
 H         -46.155720     -122.518730      -42.178200
 H         -43.980934     -123.524475      -43.005295
 H         -43.225449     -122.706062      -41.677155
