20
 generated by VMD
 C         -57.812691     -164.901245      -56.503109
 N         -57.239223     -164.134766      -57.215092
 H         -60.034142     -164.817413      -54.305954
 H         -58.230370     -165.645157      -55.830853
 C         -60.977940     -164.964279      -54.677856
 C         -61.932396     -165.757690      -53.929352
 C         -61.512848     -164.204132      -55.777382
 C         -63.451283     -165.729568      -54.167233
 C         -62.999790     -163.860992      -55.804882
 C         -63.726490     -165.143723      -55.558464
 H         -61.684097     -165.704773      -52.812569
 H         -61.566559     -166.768326      -54.027180
 H         -60.908955     -163.357025      -55.755714
 H         -61.193813     -164.782562      -56.705883
 H         -63.825642     -164.999939      -53.514290
 H         -63.993835     -166.636292      -54.151180
 H         -63.369450     -163.459000      -56.686554
 H         -63.328846     -163.013260      -55.123112
 H         -64.895256     -165.047607      -55.816422
 H         -63.251995     -165.980835      -56.202358
