20
 generated by VMD
 C         -23.394636      -53.321484      -14.167182
 N         -24.150021      -53.209469      -14.993669
 H         -20.175676      -55.261246      -15.314552
 H         -22.549028      -53.417953      -13.487865
 C         -19.595003      -55.384872      -14.516423
 C         -19.252918      -54.229984      -13.723479
 C         -18.505033      -56.442642      -14.841645
 C         -18.204594      -54.444820      -12.672360
 C         -17.701103      -56.797798      -13.578054
 C         -17.077253      -55.508102      -13.008162
 H         -20.228418      -53.831615      -13.370926
 H         -18.939688      -53.453381      -14.477087
 H         -18.830648      -57.361820      -15.306968
 H         -17.757374      -55.961590      -15.558861
 H         -18.671122      -54.777065      -11.732520
 H         -17.746161      -53.446674      -12.470098
 H         -16.910263      -57.503376      -13.880919
 H         -18.334131      -57.344730      -12.873743
 H         -16.668991      -55.792667      -12.067903
 H         -16.370806      -55.092651      -13.752309
