20
 generated by VMD
 C         -47.125557     -137.667816      -46.189819
 N         -47.195942     -136.931305      -47.141838
 H         -50.497272     -136.556274      -44.472198
 H         -47.171085     -138.485504      -45.504841
 C         -51.377708     -137.161835      -44.756493
 C         -51.351608     -138.064331      -45.974037
 C         -52.588039     -137.106979      -43.872509
 C         -52.160313     -139.351059      -45.815487
 C         -53.210041     -138.480438      -43.749920
 C         -53.440495     -139.126617      -45.055550
 H         -50.324585     -138.304642      -46.247646
 H         -51.939144     -137.476013      -46.777649
 H         -52.186172     -136.798340      -42.899597
 H         -53.240383     -136.354355      -44.197533
 H         -51.525631     -140.104370      -45.364746
 H         -52.435471     -139.835968      -46.825756
 H         -54.296974     -138.274368      -43.306839
 H         -52.890137     -139.180252      -43.001358
 H         -53.934498     -140.101547      -44.747913
 H         -54.324184     -138.539993      -45.633446
