20
 generated by VMD
 C         -28.194698      -83.637886      -27.314615
 N         -27.374407      -83.435562      -26.511475
 H         -31.348051      -84.316971      -26.337269
 H         -28.867052      -83.948357      -28.199411
 C         -31.582088      -85.223206      -25.789932
 C         -31.538359      -85.212769      -24.255552
 C         -32.134083      -86.394699      -26.502291
 C         -32.730736      -85.880035      -23.639259
 C         -33.273613      -87.081512      -25.731535
 C         -33.008556      -87.226517      -24.256403
 H         -31.289928      -84.152519      -24.020538
 H         -30.724216      -85.961090      -24.023264
 H         -32.352852      -86.278793      -27.577263
 H         -31.288359      -87.127937      -26.373964
 H         -33.675556      -85.292885      -23.823181
 H         -32.613956      -85.935982      -22.619564
 H         -33.418472      -88.010826      -26.227638
 H         -34.193275      -86.464111      -25.865135
 H         -33.931484      -87.515953      -23.841417
 H         -32.273083      -88.030853      -24.135979
