20
 generated by VMD
 C         -68.601952     -195.015457      -65.476318
 N         -68.764496     -195.110306      -64.342896
 H         -71.235443     -194.518341      -67.457138
 H         -68.378586     -194.842514      -66.534485
 C         -72.060188     -193.831284      -67.177994
 C         -71.811684     -192.507629      -66.590050
 C         -73.416367     -194.346954      -67.627396
 C         -72.996109     -192.043671      -65.707527
 C         -74.546104     -193.616531      -66.852921
 C         -74.323715     -192.135788      -66.503456
 H         -71.676369     -191.804825      -67.354507
 H         -70.965088     -192.664291      -65.772652
 H         -73.494957     -194.107544      -68.675980
 H         -73.366150     -195.410522      -67.358360
 H         -73.016212     -190.982025      -65.301292
 H         -73.112846     -192.747421      -64.871025
 H         -74.813416     -194.156662      -65.949547
 H         -75.470528     -193.679871      -67.509521
 H         -74.289787     -191.475708      -67.347122
 H         -75.113426     -191.759995      -65.744308
