20
 generated by VMD
 C         -31.749744      -75.979103      -24.124914
 N         -31.249193      -76.375946      -25.041094
 H         -29.628263      -77.653091      -22.325378
 H         -32.650455      -75.672958      -23.441853
 C         -28.612595      -77.930542      -22.120077
 C         -27.598886      -78.214561      -23.249708
 C         -28.263195      -78.380035      -20.746162
 C         -26.210400      -77.812622      -22.924719
 C         -26.886887      -77.805054      -20.384846
 C         -25.762608      -78.262962      -21.466961
 H         -27.908215      -77.836273      -24.217943
 H         -27.640915      -79.202003      -23.569660
 H         -29.055441      -78.054276      -19.962416
 H         -28.279184      -79.465279      -20.778591
 H         -26.003443      -76.744667      -23.183304
 H         -25.559700      -78.347511      -23.690811
 H         -26.615166      -78.152023      -19.442411
 H         -26.855089      -76.681450      -20.398924
 H         -24.873814      -77.579643      -21.313826
 H         -25.554068      -79.302467      -21.483232
