20
 generated by VMD
 C          -9.332185      -24.734100        0.872312
 N          -9.994582      -25.380970        1.512234
 H          -6.789475      -23.263815       -0.673398
 H          -8.278745      -22.585375       -1.492958
 C          -7.277133      -23.033747       -1.604677
 C          -7.432577      -24.363060       -2.337390
 C          -6.509414      -21.982201       -2.450461
 C          -8.050742      -24.226511       -3.762086
 C          -7.053916      -21.841745       -3.853519
 C          -7.280620      -23.179262       -4.621106
 H          -7.942671      -25.046946       -1.767187
 H          -6.464163      -24.830099       -2.565574
 H          -6.416976      -21.002546       -1.941574
 H          -5.457880      -22.339218       -2.511564
 H          -9.095832      -23.854610       -3.680486
 H          -8.104852      -25.182322       -4.253798
 H          -6.454539      -21.165180       -4.482950
 H          -7.992490      -21.322899       -3.727127
 H          -7.766892      -23.088247       -5.652990
 H          -6.272138      -23.549744       -4.875273
