20
 generated by VMD
 C         -60.219223     -170.746582      -55.232159
 N         -59.228363     -171.347504      -55.214596
 H         -63.530758     -170.679672      -57.119255
 H         -61.167908     -170.198639      -55.139145
 C         -63.381905     -169.579758      -56.928909
 C         -62.336143     -168.765350      -57.545731
 C         -64.692490     -168.917191      -56.479126
 C         -62.948647     -167.902313      -58.721130
 C         -65.285324     -168.071335      -57.613686
 C         -64.286919     -167.259186      -58.351353
 H         -61.536758     -169.293121      -57.960079
 H         -61.802830     -168.094299      -56.701450
 H         -65.498024     -169.561996      -56.117470
 H         -64.479568     -168.174789      -55.689861
 H         -63.164066     -168.584946      -59.549393
 H         -62.213886     -167.222519      -58.989086
 H         -66.168114     -167.372604      -57.265430
 H         -65.769691     -168.855362      -58.334393
 H         -64.733826     -166.875687      -59.326923
 H         -64.232216     -166.377029      -57.751202
