20
 generated by VMD
 C         -68.537056     -189.281662      -67.242699
 N         -67.392319     -189.251816      -66.973961
 H         -68.555054     -188.250610      -63.690281
 H         -69.565697     -189.510223      -67.630852
 C         -69.583908     -188.360992      -63.348812
 C         -70.136742     -189.666321      -63.448582
 C         -70.460648     -187.307724      -62.902328
 C         -71.398972     -189.694427      -64.365906
 C         -71.788795     -187.307968      -63.612095
 C         -72.539970     -188.708344      -63.842476
 H         -70.290359     -189.946899      -62.422047
 H         -69.457253     -190.325638      -63.898270
 H         -70.595642     -187.311798      -61.804104
 H         -69.969185     -186.426788      -63.056835
 H         -71.767853     -190.698471      -64.332672
 H         -71.140457     -189.385696      -65.428612
 H         -71.810272     -186.833679      -64.607819
 H         -72.421471     -186.811401      -62.915104
 H         -72.767342     -189.011597      -62.820366
 H         -73.310966     -188.720505      -64.567520
