20
 generated by VMD
 C         -31.645369      -76.679321      -24.721872
 N         -31.917177      -76.987595      -25.827904
 H         -29.233067      -76.920670      -22.352583
 H         -30.948311      -76.394814      -23.878090
 C         -28.614691      -77.791122      -22.217264
 C         -27.504299      -78.041298      -23.284821
 C         -28.677420      -78.791084      -21.091833
 C         -26.102320      -78.431641      -22.625238
 C         -27.353493      -79.101578      -20.519909
 C         -26.371523      -79.566925      -21.589525
 H         -27.310490      -76.990273      -23.633949
 H         -27.771187      -78.783936      -24.065701
 H         -29.240156      -78.281578      -20.388056
 H         -29.227814      -79.696388      -21.395554
 H         -25.546360      -77.571999      -22.195536
 H         -25.434282      -78.749847      -23.417334
 H         -27.514191      -79.821388      -19.797579
 H         -26.885506      -78.290428      -20.016628
 H         -25.393900      -80.015022      -21.258142
 H         -26.775627      -80.436111      -22.201466
