20
 generated by VMD
 C         -12.134583      -31.428886       -8.962229
 N         -12.820143      -31.979765       -9.657022
 H         -10.584082      -34.363731       -6.840946
 H         -11.455321      -33.979637       -5.375624
 C         -11.191442      -34.766754       -6.043178
 C         -10.527484      -35.893799       -5.171137
 C         -12.459404      -35.253124       -6.727642
 C         -11.502236      -36.396255       -4.042131
 C         -13.409919      -35.805992       -5.744447
 C         -12.787219      -36.851665       -4.813096
 H          -9.622211      -35.499275       -4.732153
 H         -10.217157      -36.680286       -5.868653
 H         -12.920500      -34.379192       -7.177556
 H         -12.029464      -35.898216       -7.495072
 H         -11.763689      -35.525124       -3.470056
 H         -11.115269      -37.185032       -3.395383
 H         -14.318836      -36.258190       -6.274218
 H         -13.759132      -35.003872       -5.168819
 H         -13.560819      -37.218307       -4.123885
 H         -12.483081      -37.740253       -5.460839
