20
 generated by VMD
 C         -79.189156     -207.599792      -75.288704
 N         -78.605957     -207.141266      -76.139565
 H         -78.976776     -210.184586      -73.275284
 H         -79.697365     -207.962570      -74.336868
 C         -78.384743     -210.074799      -72.348122
 C         -77.210258     -209.212418      -72.322495
 C         -78.566124     -211.127914      -71.366051
 C         -76.948364     -208.703735      -70.835724
 C         -78.396667     -210.510696      -69.973648
 C         -77.058357     -209.742020      -69.798470
 H         -77.646347     -208.305984      -72.768913
 H         -76.335495     -209.447205      -72.918213
 H         -79.578728     -211.525940      -71.630348
 H         -77.813133     -211.940842      -71.432289
 H         -77.708939     -207.902023      -70.606392
 H         -75.964966     -208.147537      -70.849121
 H         -78.547783     -211.228088      -69.159767
 H         -79.256065     -209.811279      -70.019569
 H         -76.887184     -209.334778      -68.780754
 H         -76.237732     -210.494980      -69.894325
