20
 generated by VMD
 C         -56.300247     -149.943314      -47.727730
 N         -57.351013     -150.292831      -47.474556
 H         -53.178196     -147.923126      -47.464428
 H         -55.270363     -149.720856      -47.884254
 C         -53.609673     -147.714798      -48.421005
 C         -53.213135     -148.533310      -49.523884
 C         -54.547264     -146.637360      -48.582645
 C         -54.194088     -148.566940      -50.628311
 C         -55.530651     -146.695557      -49.692219
 C         -54.917854     -147.182922      -50.944004
 H         -52.959751     -149.507645      -49.422161
 H         -52.281815     -147.992706      -49.927959
 H         -54.964413     -146.616531      -47.606705
 H         -53.919289     -145.796082      -48.876854
 H         -54.909031     -149.373871      -50.547394
 H         -53.604622     -148.810608      -51.527470
 H         -56.056019     -145.682861      -49.941143
 H         -56.275940     -147.485962      -49.429413
 H         -55.595226     -147.218689      -51.796513
 H         -54.164906     -146.439941      -51.280827
