20
 generated by VMD
 C          -6.488867      -22.490469        1.949094
 N          -6.265325      -22.921999        2.936829
 H          -5.640200      -19.836390       -0.490909
 H          -7.089684      -20.781572       -0.268978
 C          -6.438396      -20.339207       -0.991316
 C          -5.904964      -21.414759       -1.957675
 C          -7.160184      -19.251898       -1.778097
 C          -6.984343      -21.979694       -2.812490
 C          -8.239939      -19.888121       -2.654374
 C          -7.773263      -20.969561       -3.555026
 H          -5.394584      -22.222700       -1.456627
 H          -5.030869      -20.959522       -2.577930
 H          -7.708673      -18.551531       -1.076942
 H          -6.519783      -18.693954       -2.556093
 H          -7.674980      -22.409399       -2.052703
 H          -6.600612      -22.762232       -3.517638
 H          -8.760624      -19.083324       -3.233383
 H          -8.911877      -20.467070       -2.019727
 H          -8.638637      -21.344538       -4.115849
 H          -7.107754      -20.512304       -4.320763
