20
 generated by VMD
 C         -58.513138     -160.490768      -56.882439
 N         -58.626762     -159.870346      -57.845184
 H         -58.822235     -163.476486      -55.002308
 H         -58.340778     -161.095779      -56.002106
 C         -59.684093     -163.379288      -54.320915
 C         -59.477715     -163.167603      -52.835926
 C         -61.143597     -163.434525      -54.808743
 C         -60.372726     -162.192337      -52.032585
 C         -61.934261     -162.264374      -54.229282
 C         -61.822216     -162.166443      -52.668911
 H         -58.492260     -162.656036      -52.684120
 H         -59.558578     -164.143661      -52.329617
 H         -61.257462     -163.579483      -55.898094
 H         -61.661903     -164.381638      -54.443985
 H         -59.977661     -161.158493      -51.957218
 H         -60.445503     -162.583893      -50.990208
 H         -62.890907     -162.406845      -54.662140
 H         -61.482353     -161.358597      -54.447201
 H         -62.311211     -161.191544      -52.416237
 H         -62.430271     -162.964966      -52.268257
