20
 generated by VMD
 C         -48.313202     -140.602585      -45.551323
 N         -47.156860     -140.298950      -45.516636
 H         -51.450405     -138.264404      -45.898895
 H         -49.411011     -140.843750      -45.508038
 C         -52.020061     -139.187088      -45.992943
 C         -52.429581     -139.342865      -47.385532
 C         -53.087646     -139.570786      -44.828217
 C         -53.231133     -140.643539      -47.619312
 C         -54.037987     -140.717026      -45.241684
 C         -54.511837     -140.580536      -46.644436
 H         -51.571484     -139.404175      -48.160233
 H         -52.878597     -138.397797      -47.687809
 H         -52.729183     -139.797592      -43.847404
 H         -53.639458     -138.671875      -44.870564
 H         -52.574291     -141.466721      -47.437828
 H         -53.654865     -140.733963      -48.556511
 H         -54.807804     -140.693527      -44.497913
 H         -53.529915     -141.636063      -45.042324
 H         -55.224239     -141.422485      -46.813751
 H         -55.061733     -139.533310      -46.848343
