20
 generated by VMD
 C         -40.044949      -99.535942      -28.782856
 N         -39.255741     -100.058380      -28.123468
 H         -37.506519      -98.561089      -30.632555
 H         -40.729462      -98.946480      -29.288942
 C         -36.386082      -98.364861      -30.754126
 C         -35.791443      -98.786095      -32.012402
 C         -35.491325      -98.284393      -29.597799
 C         -34.641914      -97.878189      -32.340046
 C         -34.367966      -97.286850      -30.052734
 C         -33.562737      -97.826485      -31.289164
 H         -36.439697      -98.999001      -32.858692
 H         -35.267933      -99.763809      -31.889030
 H         -35.923512      -97.881409      -28.652435
 H         -35.068516      -99.263214      -29.300812
 H         -35.056549      -96.865295      -32.561829
 H         -34.238781      -98.171921      -33.363483
 H         -33.757153      -97.237053      -29.155956
 H         -34.846878      -96.367424      -30.321781
 H         -32.708336      -97.112267      -31.487976
 H         -33.168636      -98.815498      -31.104565
