20
 generated by VMD
 C         -79.493881     -205.377930      -70.991730
 N         -80.657234     -205.607941      -71.062706
 H         -77.159874     -202.963074      -69.423836
 H         -78.420273     -205.237869      -70.610397
 C         -76.130699     -203.087189      -69.668922
 C         -75.427834     -201.942520      -70.418335
 C         -75.322289     -204.304871      -69.347137
 C         -73.824631     -201.907181      -70.365189
 C         -73.793503     -204.192596      -69.078789
 C         -73.175690     -203.297623      -70.105553
 H         -75.786880     -200.964645      -70.150345
 H         -75.767502     -202.233719      -71.435272
 H         -75.657944     -204.774643      -68.397095
 H         -75.532623     -205.023651      -70.158760
 H         -73.552383     -201.210342      -69.544266
 H         -73.368446     -201.365097      -71.266258
 H         -73.316086     -205.175400      -69.043854
 H         -73.752075     -203.797272      -68.032166
 H         -72.017792     -203.161499      -69.797882
 H         -73.243896     -203.921432      -71.022522
