20
 generated by VMD
 C         -46.632149     -124.579994      -36.905998
 N         -46.967377     -125.002884      -35.901257
 H         -44.495884     -122.289703      -37.914745
 H         -46.402580     -124.082924      -37.869446
 C         -44.654972     -121.908623      -38.933861
 C         -43.373322     -121.914383      -39.722252
 C         -45.788097     -121.164963      -39.528934
 C         -43.597511     -122.124809      -41.241943
 C         -46.000816     -121.435478      -41.029804
 C         -44.653637     -121.237976      -41.769108
 H         -42.559353     -122.525009      -39.346722
 H         -42.936733     -120.818069      -39.487087
 H         -46.735126     -121.376465      -38.936474
 H         -45.527302     -120.068481      -39.422478
 H         -44.027370     -123.077011      -41.380997
 H         -42.667229     -122.206146      -41.804398
 H         -46.684090     -120.663376      -41.429993
 H         -46.410248     -122.376396      -41.078705
 H         -44.810154     -121.358849      -42.878120
 H         -44.353348     -120.199280      -41.484787
