20
 generated by VMD
 C         -38.770916     -111.420807      -36.484932
 N         -38.358158     -110.326012      -36.513901
 H         -40.202549     -114.064461      -35.075447
 H         -39.236427     -112.415955      -36.331165
 C         -41.040924     -113.524002      -35.365883
 C         -41.707729     -113.815117      -36.722424
 C         -41.766422     -112.587440      -34.403130
 C         -43.211262     -114.164925      -36.462475
 C         -43.307217     -112.882919      -34.366425
 C         -43.859138     -112.984756      -35.828274
 H         -41.290733     -114.651100      -37.232155
 H         -41.531345     -112.883827      -37.265465
 H         -41.239143     -112.707237      -33.407295
 H         -41.604027     -111.447800      -34.562263
 H         -43.452934     -115.167831      -36.056366
 H         -43.685905     -114.233559      -37.527569
 H         -43.976440     -112.268639      -33.744308
 H         -43.483707     -113.821884      -33.804451
 H         -44.993935     -113.083138      -35.656643
 H         -43.729546     -112.010483      -36.226814
