20
 generated by VMD
 C         -66.778336     -190.902496      -66.418732
 N         -67.821907     -190.490891      -66.584877
 H         -70.527184     -190.332001      -66.625519
 H         -65.838493     -191.345093      -66.023575
 C         -71.175568     -190.197739      -65.733543
 C         -72.293121     -191.215210      -65.499069
 C         -70.596703     -189.428909      -64.537704
 C         -73.230278     -190.733582      -64.444717
 C         -71.749382     -188.770020      -63.756176
 C         -72.729340     -189.783325      -63.306770
 H         -71.868118     -192.177872      -65.265656
 H         -72.804085     -191.298828      -66.508232
 H         -69.924812     -190.090408      -64.062355
 H         -69.888748     -188.753342      -65.087669
 H         -73.825745     -191.534149      -63.997684
 H         -74.066772     -190.188385      -65.007805
 H         -72.328827     -188.092743      -64.441666
 H         -71.403610     -188.158585      -62.970234
 H         -72.369522     -190.454041      -62.622902
 H         -73.574837     -189.188080      -62.794815
