20
 generated by VMD
 C         -21.632486      -66.394493      -16.714970
 N         -20.896893      -66.851471      -15.952792
 H         -23.818903      -64.692154      -18.030054
 H         -22.517340      -65.811272      -17.111135
 C         -24.505365      -65.425041      -18.525547
 C         -24.352171      -65.825729      -20.051666
 C         -25.720341      -65.911804      -17.823862
 C         -24.282602      -67.273788      -20.146605
 C         -25.777653      -67.370705      -17.981531
 C         -25.521591      -67.885345      -19.462799
 H         -23.392282      -65.317284      -20.422714
 H         -25.168087      -65.384262      -20.677109
 H         -25.663605      -65.583542      -16.778162
 H         -26.636475      -65.605888      -18.333895
 H         -23.468458      -67.654755      -19.591181
 H         -24.140818      -67.684418      -21.103573
 H         -26.720772      -67.812569      -17.603697
 H         -24.929651      -67.684113      -17.389755
 H         -25.480251      -69.041466      -19.456718
 H         -26.412134      -67.649223      -20.013086
