20
 generated by VMD
 C         -67.807671     -179.402313      -58.686211
 N         -68.252426     -180.142609      -57.881069
 H         -66.524887     -176.543182      -59.454128
 H         -67.475113     -178.652908      -59.361526
 C         -65.789787     -175.973007      -59.980316
 C         -66.123131     -174.944717      -60.918129
 C         -64.471161     -176.443588      -59.575546
 C         -65.044647     -173.863953      -61.019119
 C         -63.535130     -175.236694      -59.318001
 C         -63.647636     -174.253586      -60.524117
 H         -67.076851     -174.485092      -60.754875
 H         -66.202110     -175.564774      -61.801624
 H         -64.529877     -177.081482      -58.699646
 H         -64.017738     -177.050552      -60.454807
 H         -65.443069     -173.160065      -60.197384
 H         -65.028160     -173.280655      -61.966892
 H         -62.488335     -175.694229      -59.345291
 H         -63.747166     -174.801117      -58.341766
 H         -62.962292     -173.391541      -60.478691
 H         -63.105217     -174.757233      -61.391575
