20
 generated by VMD
 C         -59.922424     -153.106537      -51.267017
 N         -60.520836     -152.201553      -51.636242
 H         -57.093674     -153.307755      -49.325565
 H         -59.373680     -153.926132      -50.881622
 C         -56.331093     -152.810242      -49.924614
 C         -54.870872     -153.179977      -49.570820
 C         -56.643719     -151.459488      -50.350117
 C         -53.778355     -152.554550      -50.398930
 C         -55.606815     -151.078659      -51.367188
 C         -54.217869     -151.109909      -50.840111
 H         -54.853985     -154.202103      -49.663345
 H         -54.759666     -152.941910      -48.502224
 H         -57.594704     -151.427200      -50.851387
 H         -56.706089     -150.842270      -49.430481
 H         -53.564095     -153.147079      -51.296524
 H         -52.925018     -152.440506      -49.717407
 H         -55.987263     -150.150131      -51.896450
 H         -55.837849     -151.778885      -52.109638
 H         -53.491978     -150.665512      -51.639732
 H         -54.241051     -150.534271      -49.947140
