20
 generated by VMD
 C         -44.127510     -121.725998      -35.937897
 N         -43.778008     -120.610779      -35.716888
 H         -44.962826     -122.515495      -39.725983
 H         -44.497955     -122.706474      -36.096916
 C         -44.759876     -121.509903      -39.646416
 C         -43.374123     -121.003166      -39.619293
 C         -45.822609     -120.638214      -39.000275
 C         -43.390373     -119.528946      -40.218338
 C         -45.782803     -119.167862      -39.466537
 C         -44.282051     -118.647766      -39.357483
 H         -42.740166     -121.612045      -40.186722
 H         -42.911201     -121.012939      -38.647728
 H         -46.786674     -121.091537      -39.257042
 H         -45.854023     -120.464943      -37.882744
 H         -43.645344     -119.461739      -41.294914
 H         -42.280922     -119.084908      -40.160793
 H         -46.448822     -118.406219      -38.795460
 H         -46.077202     -118.844978      -40.509785
 H         -44.318863     -117.623871      -39.779335
 H         -43.940777     -118.759628      -38.335999
