20
 generated by VMD
 C         -69.287483     -194.587082      -64.940300
 N         -68.398491     -193.847641      -65.194885
 H         -71.026443     -194.248810      -67.023453
 H         -70.165192     -195.249481      -64.897125
 C         -71.927704     -193.712891      -67.044479
 C         -71.664886     -192.261276      -66.689934
 C         -73.345703     -194.105865      -67.201935
 C         -72.514511     -192.075195      -65.488747
 C         -74.310959     -193.016296      -67.011154
 C         -74.019798     -192.244263      -65.734467
 H         -71.995949     -191.644653      -67.454964
 H         -70.605125     -191.868484      -66.488091
 H         -73.543907     -194.561737      -68.125458
 H         -73.491966     -194.835022      -66.455070
 H         -72.459396     -191.080414      -64.972618
 H         -72.211227     -192.717056      -64.671616
 H         -75.302376     -193.397842      -67.052185
 H         -74.261269     -192.318863      -67.879944
 H         -74.388832     -191.259018      -65.811989
 H         -74.506912     -192.696030      -64.735786
