20
 generated by VMD
 C          -9.371437      -24.841843        0.757699
 N         -10.126517      -25.400997        1.368083
 H          -6.860419      -23.189228       -0.664621
 H          -8.205729      -22.568544       -1.512651
 C          -7.258151      -23.021275       -1.630210
 C          -7.308043      -24.367146       -2.333722
 C          -6.438159      -22.089001       -2.533844
 C          -8.100774      -24.236305       -3.665463
 C          -7.122020      -21.956514       -3.829873
 C          -7.350789      -23.249077       -4.536448
 H          -7.920613      -25.061800       -1.717930
 H          -6.337056      -24.815275       -2.583779
 H          -6.303592      -21.079668       -2.062338
 H          -5.418501      -22.466707       -2.678940
 H          -9.131425      -23.898043       -3.483267
 H          -8.075165      -25.165897       -4.171050
 H          -6.475478      -21.375557       -4.479172
 H          -8.010713      -21.365643       -3.707285
 H          -7.992080      -23.086975       -5.477695
 H          -6.412484      -23.641476       -4.995509
