20
 generated by VMD
 C         -47.668922     -139.515381      -45.915459
 N         -46.707645     -139.016205      -46.241230
 H         -50.914246     -138.507446      -44.901096
 H         -48.626644     -139.950668      -45.672050
 C         -51.849255     -138.963348      -45.239014
 C         -51.912811     -139.335754      -46.749641
 C         -53.083298     -138.808273      -44.430088
 C         -53.007923     -140.456573      -47.031391
 C         -54.268719     -139.730759      -44.877762
 C         -54.324135     -139.870850      -46.340782
 H         -50.979717     -139.565033      -47.145462
 H         -52.211521     -138.444260      -47.283165
 H         -53.041077     -138.885620      -43.322388
 H         -53.318127     -137.743271      -44.729580
 H         -52.688427     -141.433975      -46.698864
 H         -53.102448     -140.542236      -48.121220
 H         -55.290642     -139.372604      -44.483681
 H         -54.167622     -140.659668      -44.388920
 H         -55.021351     -140.632919      -46.569843
 H         -54.491604     -138.782242      -46.744156
