20
 generated by VMD
 C         -45.504368     -123.451508      -35.442215
 N         -46.077591     -124.472427      -35.349823
 H         -44.991829     -122.687668      -38.936005
 H         -45.023071     -122.420441      -35.435398
 C         -44.755672     -121.591042      -39.149216
 C         -43.384182     -121.406487      -39.614269
 C         -45.859974     -120.609123      -39.467232
 C         -43.329361     -121.015137      -41.092312
 C         -45.889538     -120.428726      -40.972778
 C         -44.469437     -120.050728      -41.524361
 H         -42.649284     -122.214859      -39.520153
 H         -42.927052     -120.617134      -38.982201
 H         -46.773167     -121.112717      -39.123920
 H         -45.720970     -119.558022      -38.911709
 H         -43.563843     -121.933426      -41.602341
 H         -42.269497     -120.942009      -41.496204
 H         -46.522694     -119.614090      -41.199852
 H         -46.153366     -121.334702      -41.498379
 H         -44.511040     -119.827377      -42.662750
 H         -44.209362     -119.113388      -41.006588
