20
 generated by VMD
 C         -47.533772     -139.400238      -45.804348
 N         -46.718201     -138.809906      -46.414551
 H         -50.957630     -138.286636      -44.865097
 H         -48.373146     -139.623932      -45.180042
 C         -51.808189     -138.897675      -45.182896
 C         -51.905170     -139.326691      -46.631054
 C         -53.035336     -138.646225      -44.490639
 C         -53.005932     -140.272293      -46.959129
 C         -54.197052     -139.678162      -44.770191
 C         -54.315201     -139.822006      -46.283730
 H         -50.894783     -139.819870      -46.981953
 H         -52.119492     -138.396683      -47.210381
 H         -52.895313     -138.786697      -43.434238
 H         -53.266544     -137.612854      -44.696110
 H         -52.794510     -141.347992      -46.594353
 H         -53.093613     -140.286957      -48.051868
 H         -55.117157     -139.197144      -44.457806
 H         -53.950283     -140.644012      -44.118675
 H         -55.111889     -140.485779      -46.633553
 H         -54.484932     -138.873199      -46.544926
