20
 generated by VMD
 C         -78.470673     -209.361725      -76.961952
 N         -78.267212     -209.190277      -78.139915
 H         -78.912750     -211.018875      -73.825783
 H         -78.559998     -209.565140      -75.953072
 C         -79.039360     -211.824203      -73.064034
 C         -77.888557     -212.116058      -72.118134
 C         -80.274277     -212.729156      -72.906250
 C         -78.178490     -212.374817      -70.673851
 C         -80.505684     -213.114731      -71.398636
 C         -79.306343     -213.481155      -70.533844
 H         -77.128593     -211.297791      -72.301956
 H         -77.337097     -213.024811      -72.439545
 H         -81.237305     -212.286179      -73.288216
 H         -79.967163     -213.667847      -73.392784
 H         -78.421722     -211.404327      -70.251495
 H         -77.284485     -212.696198      -70.049515
 H         -81.181007     -213.933456      -71.343056
 H         -81.225861     -212.329605      -70.869011
 H         -79.519997     -213.791077      -69.476364
 H         -78.874794     -214.500946      -70.934181
