20
 generated by VMD
 C         -47.523380     -139.385956      -45.823040
 N         -46.733643     -138.845764      -46.388222
 H         -50.964333     -138.293106      -44.774769
 H         -48.400188     -139.729843      -45.269627
 C         -51.765579     -138.877060      -45.206703
 C         -51.853268     -139.324814      -46.644043
 C         -53.063457     -138.685684      -44.469616
 C         -53.044674     -140.309616      -46.946381
 C         -54.188828     -139.689987      -44.757622
 C         -54.358250     -139.833267      -46.332047
 H         -51.014427     -139.764542      -47.049042
 H         -52.069759     -138.404037      -47.162796
 H         -52.863731     -138.830811      -43.344181
 H         -53.366116     -137.594421      -44.656002
 H         -52.750282     -141.259598      -46.646042
 H         -53.062992     -140.332657      -48.039818
 H         -55.170574     -139.235275      -44.515514
 H         -53.987171     -140.495926      -44.104912
 H         -55.116020     -140.571915      -46.569183
 H         -54.535988     -138.706482      -46.736301
