20
 generated by VMD
 C         -20.355112      -57.296783      -16.661755
 N         -19.572374      -56.395924      -16.669949
 H         -22.698568      -60.027866      -17.763290
 H         -21.048122      -58.169617      -16.783415
 C         -22.578314      -60.615452      -16.915913
 C         -23.564043      -60.610443      -15.774168
 C         -21.214838      -61.246120      -16.763161
 C         -22.836716      -60.602219      -14.550841
 C         -20.997076      -62.069649      -15.519356
 C         -22.091461      -61.912186      -14.426309
 H         -24.088923      -61.603794      -15.823167
 H         -24.246223      -59.767128      -15.852081
 H         -21.030067      -61.935883      -17.621851
 H         -20.419493      -60.508278      -16.804655
 H         -23.371529      -60.311840      -13.643888
 H         -22.076523      -59.772865      -14.570683
 H         -20.034462      -61.788574      -14.968515
 H         -21.059673      -63.115326      -15.898580
 H         -22.733339      -62.780331      -14.276427
 H         -21.547871      -61.858704      -13.508029
