20
 generated by VMD
 C         -59.932949     -156.811630      -56.220913
 N         -60.986031     -156.307434      -56.328648
 H         -59.619930     -157.700058      -53.356823
 H         -58.961960     -157.232239      -55.891781
 C         -58.833031     -157.966003      -52.738121
 C         -57.704414     -157.051376      -52.427101
 C         -58.732170     -159.372910      -52.473839
 C         -57.298782     -157.254517      -50.956238
 C         -58.416691     -159.528748      -51.030354
 C         -57.170238     -158.712021      -50.609623
 H         -58.011314     -155.991409      -52.482502
 H         -56.929813     -157.225708      -53.312885
 H         -59.624905     -160.027786      -52.602081
 H         -57.968140     -159.720444      -53.247330
 H         -58.222744     -156.764587      -50.369720
 H         -56.316578     -156.739807      -50.794250
 H         -58.326622     -160.579224      -50.775429
 H         -59.330467     -159.145294      -50.519962
 H         -57.052773     -158.875381      -49.453484
 H         -56.324966     -159.108551      -51.185165
