20
 generated by VMD
 C         -59.460011     -158.250641      -57.399120
 N         -58.443855     -158.509247      -57.789970
 H         -60.335083     -158.413467      -53.535339
 H         -60.399391     -157.983109      -56.978668
 C         -59.996098     -159.173630      -52.825123
 C         -58.588776     -159.317245      -52.467960
 C         -60.685577     -160.444962      -53.214874
 C         -58.466183     -160.216873      -51.338543
 C         -60.421062     -161.562408      -52.151714
 C         -58.960533     -161.662277      -51.694016
 H         -58.246761     -158.276932      -52.212326
 H         -57.972816     -159.520935      -53.328831
 H         -61.735870     -160.342377      -53.277218
 H         -60.351768     -160.818985      -54.187729
 H         -58.986961     -160.006714      -50.317413
 H         -57.462402     -160.240829      -51.082222
 H         -60.951309     -162.421799      -52.533581
 H         -60.908989     -161.373642      -51.249405
 H         -58.765556     -162.333237      -50.785248
 H         -58.388531     -162.076508      -52.544491
