20
 generated by VMD
 C         -11.771914      -25.836639       -0.892637
 N         -11.935410      -25.202385        0.022706
 H          -8.123055      -26.219391       -1.345859
 H          -9.185396      -25.750872       -2.621686
 C          -8.135760      -25.809549       -2.357813
 C          -7.327507      -26.664213       -3.350416
 C          -7.496407      -24.485270       -2.214188
 C          -7.356969      -25.839766       -4.695223
 C          -7.440857      -23.677330       -3.473644
 C          -6.734254      -24.471315       -4.523166
 H          -7.925168      -27.560377       -3.537081
 H          -6.317555      -26.858934       -2.999718
 H          -8.139876      -23.978098       -1.536235
 H          -6.515052      -24.588324       -1.706114
 H          -8.356582      -25.655931       -5.064509
 H          -6.764815      -26.407682       -5.403347
 H          -6.883870      -22.760799       -3.287293
 H          -8.445741      -23.422249       -3.782088
 H          -6.874190      -23.979799       -5.481753
 H          -5.664799      -24.506847       -4.186649
