20
 generated by VMD
 C          -1.622926      -14.009260        1.479454
 N          -1.889729      -12.931452        1.387073
 H          -3.734483      -17.289047        1.562366
 H          -4.210575      -17.122105       -0.205516
 C          -4.547264      -17.145628        0.828210
 C          -5.199258      -15.746611        1.084353
 C          -5.562037      -18.261694        0.898973
 C          -6.401993      -15.547446        0.134548
 C          -6.789073      -17.973684        0.017271
 C          -7.442532      -16.569489        0.295249
 H          -4.512608      -14.947054        0.945959
 H          -5.588329      -15.586836        2.126364
 H          -5.103419      -19.147142        0.485416
 H          -5.929718      -18.283329        1.889541
 H          -6.064669      -15.389236       -0.911898
 H          -6.816650      -14.554480        0.390527
 H          -7.569980      -18.715052        0.324327
 H          -6.607506      -18.128660       -1.084776
 H          -8.209670      -16.424780       -0.492437
 H          -8.004925      -16.577438        1.231424
