20
 generated by VMD
 C         -68.380722     -186.037903      -67.713043
 N         -68.414047     -187.190384      -67.542435
 H         -68.330582     -187.615494      -64.385170
 H         -68.348640     -184.957184      -67.967659
 C         -69.133064     -187.663528      -63.729698
 C         -68.870438     -187.227325      -62.405499
 C         -70.573296     -187.593704      -64.169632
 C         -69.814278     -187.856613      -61.394287
 C         -71.576843     -188.214798      -63.239433
 C         -71.290298     -187.611725      -61.785736
 H         -69.092201     -186.099777      -62.321568
 H         -67.828362     -187.183609      -62.099285
 H         -70.889885     -186.545883      -64.367989
 H         -70.539703     -188.039551      -65.253906
 H         -69.439049     -187.478653      -60.408173
 H         -69.663879     -188.966858      -61.476585
 H         -71.612839     -189.273254      -63.073124
 H         -72.579361     -187.975464      -63.588417
 H         -71.427849     -186.512482      -61.764332
 H         -72.072456     -188.045288      -61.249065
