20
 generated by VMD
 C         -78.174622     -203.853729      -69.268143
 N         -79.107521     -204.185913      -69.801407
 H         -75.784622     -202.544113      -67.828667
 H         -77.438744     -203.549835      -68.584030
 C         -75.071289     -201.939285      -68.445160
 C         -75.101700     -200.511276      -68.772911
 C         -73.898277     -202.756577      -68.895538
 C         -74.788200     -200.283646      -70.300690
 C         -72.935310     -201.864563      -69.607643
 C         -73.653831     -201.139603      -70.867210
 H         -74.376678     -199.998230      -68.107697
 H         -76.092598     -200.044449      -68.623589
 H         -73.425789     -203.282593      -68.036949
 H         -74.269981     -203.684952      -69.536896
 H         -74.472404     -199.247620      -70.392685
 H         -75.748627     -200.485870      -70.886391
 H         -72.013931     -202.404968      -69.860802
 H         -72.484116     -201.193481      -68.879913
 H         -72.895554     -200.530518      -71.343163
 H         -73.963531     -201.856995      -71.500175
