20
 generated by VMD
 C         -53.460827     -147.645370      -45.522648
 N         -54.451561     -147.686890      -44.968033
 H         -54.793606     -147.897171      -48.685814
 H         -52.504360     -147.467316      -45.930771
 C         -54.504730     -146.890823      -48.796722
 C         -53.222561     -146.627197      -49.658867
 C         -54.986919     -145.622299      -48.139847
 C         -53.319683     -145.331711      -50.538486
 C         -55.227783     -144.363205      -49.022511
 C         -53.858467     -144.045197      -49.810623
 H         -53.105469     -147.507919      -50.207272
 H         -52.379890     -146.518112      -48.933800
 H         -55.868721     -145.889771      -47.563850
 H         -54.178398     -145.347458      -47.340137
 H         -54.193825     -145.633377      -51.216484
 H         -52.404198     -145.193909      -51.127293
 H         -55.453693     -143.459564      -48.332897
 H         -56.131077     -144.521057      -49.610260
 H         -53.897068     -143.413773      -50.662525
 H         -53.084930     -143.741577      -49.083176
