20
 generated by VMD
 C         -68.969910     -180.807358      -61.143921
 N         -69.916115     -180.970337      -60.507835
 H         -67.172203     -178.360672      -59.514587
 H         -68.088539     -180.803055      -61.814938
 C         -66.274895     -177.825043      -59.832615
 C         -65.916245     -178.017944      -61.327602
 C         -65.307236     -177.331818      -58.761108
 C         -65.028107     -176.702011      -61.677269
 C         -64.617363     -176.056931      -59.340012
 C         -63.940754     -176.343887      -60.616497
 H         -66.746002     -178.097046      -62.049553
 H         -65.190140     -178.857651      -61.460903
 H         -65.904007     -177.041824      -57.885494
 H         -64.645180     -178.150726      -58.424057
 H         -65.620918     -175.879608      -61.967701
 H         -64.411308     -176.847565      -62.603542
 H         -63.903862     -175.693497      -58.590477
 H         -65.332359     -175.204330      -59.406662
 H         -63.400337     -175.577103      -61.081909
 H         -63.281036     -177.156906      -60.508862
