20
 generated by VMD
 C         -56.148983     -149.300537      -45.886276
 N         -55.988667     -150.326569      -45.335159
 H         -53.701130     -147.979980      -47.801422
 H         -56.193531     -148.430130      -46.516003
 C         -54.034695     -147.439667      -48.697819
 C         -52.934727     -147.572830      -49.916573
 C         -54.823494     -146.121643      -48.577259
 C         -53.721420     -147.000076      -51.169258
 C         -55.264236     -145.544586      -49.873711
 C         -54.137993     -145.542526      -50.886604
 H         -52.580822     -148.586655      -49.985561
 H         -52.199173     -146.732376      -49.767197
 H         -55.700840     -146.226288      -47.918797
 H         -54.024281     -145.424362      -48.112148
 H         -54.587902     -147.704071      -51.418217
 H         -53.009720     -146.928375      -52.091663
 H         -55.975300     -144.623444      -49.949730
 H         -55.972206     -146.240387      -50.208427
 H         -54.389412     -145.245926      -51.890396
 H         -53.288177     -144.922211      -50.559059
