20
 generated by VMD
 C         -50.094955     -144.784729      -44.446503
 N         -49.363903     -143.993805      -44.744431
 H         -52.471466     -142.250580      -45.838821
 H         -50.761547     -145.645111      -44.350273
 C         -53.116867     -142.222916      -46.691246
 C         -52.434177     -142.340317      -47.974274
 C         -54.525612     -141.621399      -46.520985
 C         -53.283562     -142.695129      -49.185009
 C         -55.372353     -142.133942      -47.759567
 C         -54.572987     -141.790695      -49.078621
 H         -51.655514     -143.096497      -47.921501
 H         -51.807850     -141.525894      -48.191891
 H         -54.893120     -141.993637      -45.571098
 H         -54.445801     -140.642563      -46.382481
 H         -53.524097     -143.711609      -49.281330
 H         -52.701435     -142.446365      -50.069893
 H         -56.312450     -141.582611      -47.669704
 H         -55.450924     -143.182678      -47.808197
 H         -55.061012     -141.851990      -49.984093
 H         -54.312092     -140.816605      -49.004810
