20
 generated by VMD
 C         -22.103758      -55.200195      -17.367928
 N         -22.446129      -55.307381      -18.422749
 H         -21.227476      -56.353786      -13.954707
 H         -21.682259      -54.712193      -16.436399
 C         -20.775969      -57.368526      -14.137469
 C         -20.961508      -58.213657      -12.878917
 C         -20.026915      -57.899113      -15.268125
 C         -20.859213      -59.769840      -13.227263
 C         -19.911652      -59.410927      -15.382154
 C         -19.674517      -60.132580      -14.038907
 H         -21.836903      -57.936207      -12.334721
 H         -20.146835      -57.953014      -12.212709
 H         -20.410738      -57.494061      -16.189154
 H         -18.974773      -57.523724      -15.123047
 H         -21.795948      -60.055191      -13.741292
 H         -20.777994      -60.340321      -12.253768
 H         -19.147448      -59.606602      -16.145748
 H         -20.921183      -59.777596      -15.743805
 H         -19.555262      -61.200363      -14.236037
 H         -18.706734      -59.751865      -13.555754
