20
 generated by VMD
 C         -79.195984     -207.579788      -75.286072
 N         -78.615829     -207.136139      -76.156830
 H         -78.961678     -210.122437      -73.242340
 H         -79.672707     -207.837769      -74.355431
 C         -78.373802     -210.103149      -72.347420
 C         -77.204781     -209.207352      -72.292725
 C         -78.545654     -211.122879      -71.361061
 C         -76.942978     -208.697418      -70.843269
 C         -78.399033     -210.504898      -69.965889
 C         -77.055359     -209.747314      -69.798241
 H         -77.708130     -208.330963      -72.668579
 H         -76.308319     -209.421860      -72.862114
 H         -79.568489     -211.520554      -71.581558
 H         -77.852242     -211.950729      -71.521507
 H         -77.696999     -207.951569      -70.658516
 H         -75.992165     -208.166595      -70.968964
 H         -78.565742     -211.199554      -69.198769
 H         -79.223091     -209.678391      -69.984673
 H         -76.986610     -209.278900      -68.769005
 H         -76.197853     -210.446457      -69.870529
