20
 generated by VMD
 C         -80.361145     -206.859268      -74.034019
 N         -80.573265     -206.721039      -75.150719
 H         -76.617928     -207.616592      -73.110138
 H         -80.135834     -206.802536      -72.955261
 C         -76.372101     -207.777466      -72.075691
 C         -75.413223     -206.831299      -71.386986
 C         -77.296684     -208.600388      -71.192741
 C         -75.407784     -206.713760      -69.810112
 C         -77.463295     -208.249908      -69.786636
 C         -76.123276     -207.914185      -69.194702
 H         -75.450638     -205.896255      -71.927383
 H         -74.363930     -207.097717      -71.526634
 H         -78.281342     -208.807800      -71.677170
 H         -76.765991     -209.530258      -71.180115
 H         -76.015633     -205.802826      -69.542778
 H         -74.336975     -206.670593      -69.445908
 H         -77.869652     -209.132172      -69.218018
 H         -78.231026     -207.511475      -69.790535
 H         -76.300209     -207.706558      -68.158104
 H         -75.259491     -208.636475      -69.138428
