20
 generated by VMD
 C         -58.415497     -160.033035      -57.033596
 N         -58.615383     -159.865143      -58.150494
 H         -58.775200     -163.261429      -54.805973
 H         -58.148911     -160.220673      -56.021587
 C         -59.615429     -163.064941      -54.139313
 C         -59.435482     -163.093323      -52.671394
 C         -60.997684     -163.055389      -54.750050
 C         -60.299419     -161.998795      -52.004852
 C         -61.989597     -162.236084      -53.940006
 C         -61.713280     -162.241547      -52.422108
 H         -58.353153     -163.017426      -52.334217
 H         -59.616852     -164.198135      -52.284695
 H         -60.879883     -162.582336      -55.675522
 H         -61.429886     -164.084991      -54.951958
 H         -59.984692     -161.001190      -52.481903
 H         -60.073677     -162.033615      -50.988506
 H         -62.947491     -162.629456      -54.174911
 H         -62.020901     -161.235245      -54.061028
 H         -62.404255     -161.620667      -51.870098
 H         -62.033806     -163.292938      -52.059467
