20
 generated by VMD
 C         -38.598839     -109.619431      -36.277798
 N         -37.623131     -108.958351      -36.203381
 H         -42.411732     -110.414429      -36.904831
 H         -39.571362     -110.023415      -36.218060
 C         -42.055752     -110.717735      -35.977859
 C         -41.750111     -112.286140      -36.082825
 C         -42.628086     -110.236206      -34.586155
 C         -40.877026     -112.638618      -34.889698
 C         -41.793201     -110.797981      -33.447426
 C         -41.487030     -112.259773      -33.444332
 H         -41.275021     -112.597481      -37.003368
 H         -42.760147     -112.815842      -36.095627
 H         -42.477360     -109.100998      -34.566662
 H         -43.699440     -110.494583      -34.490421
 H         -40.002281     -112.099792      -34.992813
 H         -40.652435     -113.739555      -34.764706
 H         -42.340996     -110.547768      -32.455921
 H         -40.799950     -110.198051      -33.482975
 H         -40.690792     -112.554146      -32.722412
 H         -42.281464     -112.919998      -33.303703
