20
 generated by VMD
 C          -8.727031      -23.585197        2.448088
 N          -8.046693      -24.261709        3.012135
 H          -8.778508      -23.573492       -1.479850
 H          -9.398997      -22.676558       -2.717566
 C          -8.389482      -22.971180       -2.292718
 C          -7.712663      -23.941751       -3.284069
 C          -7.473982      -21.747345       -1.906730
 C          -7.180300      -23.283604       -4.560721
 C          -6.966141      -21.039778       -3.193748
 C          -6.200381      -22.119074       -4.150510
 H          -8.449691      -24.635592       -3.503440
 H          -6.869771      -24.517553       -2.871152
 H          -8.023939      -21.007008       -1.342294
 H          -6.654481      -22.160540       -1.287240
 H          -8.040996      -22.886116       -5.192992
 H          -6.582301      -24.110090       -5.019956
 H          -6.232359      -20.262564       -2.893508
 H          -7.847717      -20.596952       -3.704657
 H          -5.874062      -21.619228       -5.063238
 H          -5.281889      -22.421328       -3.662780
