20
 generated by VMD
 C         -38.981953     -115.955330      -35.335629
 N         -39.421131     -115.379753      -34.405560
 H         -41.468288     -115.758133      -37.183605
 H         -38.677536     -116.596458      -36.200390
 C         -42.465126     -115.728706      -37.389187
 C         -43.042412     -115.555954      -38.802631
 C         -43.329334     -115.758415      -36.219673
 C         -44.253048     -116.328941      -38.973675
 C         -44.740704     -116.145691      -36.429096
 C         -45.251991     -116.008438      -37.863499
 H         -42.194447     -115.846451      -39.485546
 H         -43.373001     -114.484337      -39.047607
 H         -42.996723     -116.290199      -35.340744
 H         -43.404591     -114.742615      -35.821701
 H         -44.138325     -117.403435      -39.026875
 H         -44.695873     -115.949608      -39.942356
 H         -45.425694     -115.526382      -35.827896
 H         -44.872917     -117.215256      -36.033855
 H         -46.125923     -116.717857      -37.982750
 H         -45.641247     -114.943062      -38.040485
