20
 generated by VMD
 C         -49.682983     -133.200195      -46.822182
 N         -48.813320     -132.449417      -47.141777
 H         -48.148067     -134.316147      -44.580818
 H         -50.567978     -133.664902      -46.347195
 C         -48.986897     -134.731689      -43.964855
 C         -49.347107     -136.148972      -44.132854
 C         -49.937149     -133.852249      -43.227802
 C         -50.087578     -136.819321      -42.999905
 C         -50.677414     -134.547165      -42.030556
 C         -51.174271     -135.943222      -42.451450
 H         -48.442287     -136.844040      -44.306477
 H         -49.990440     -136.283203      -44.972462
 H         -49.347603     -132.917252      -42.852406
 H         -50.765022     -133.440445      -43.839027
 H         -49.271576     -136.853806      -42.258446
 H         -50.474415     -137.829315      -43.307632
 H         -51.481037     -133.945114      -41.757362
 H         -49.949520     -134.612656      -41.262726
 H         -51.918633     -136.458282      -41.615955
 H         -51.955292     -135.859055      -43.241627
