20
 generated by VMD
 C         -37.915733     -114.296906      -35.351627
 N         -38.665096     -115.140976      -35.054882
 H         -41.365208     -115.151321      -36.502811
 H         -37.312717     -113.430321      -35.469345
 C         -42.464939     -115.155983      -36.863739
 C         -42.839741     -114.942848      -38.298985
 C         -43.484257     -114.966873      -35.759708
 C         -44.069641     -115.871140      -38.568359
 C         -44.868671     -115.638985      -36.075310
 C         -45.258125     -115.582932      -37.524910
 H         -42.011940     -115.342430      -38.906883
 H         -43.148014     -113.930573      -38.575565
 H         -43.013420     -115.424164      -34.822227
 H         -43.391369     -113.916489      -35.386139
 H         -43.682663     -116.938721      -38.409019
 H         -44.470810     -115.765869      -39.568844
 H         -45.721943     -115.383766      -35.415703
 H         -44.647198     -116.603828      -35.669518
 H         -45.980328     -116.263100      -37.754356
 H         -45.438438     -114.575729      -37.887600
