20
 generated by VMD
 C         -67.494980     -180.022873      -58.298519
 N         -68.464035     -180.090622      -58.949154
 H         -67.249977     -176.730682      -60.199287
 H         -66.626137     -180.023239      -57.672539
 C         -66.324432     -176.129776      -60.105972
 C         -66.077415     -175.189621      -61.257706
 C         -65.119110     -176.701996      -59.361202
 C         -64.769501     -174.320663      -61.276066
 C         -63.987568     -175.739365      -59.281670
 C         -63.607304     -175.027649      -60.528595
 H         -66.847160     -174.564575      -61.610157
 H         -65.913109     -176.010986      -62.002167
 H         -65.395767     -176.976822      -58.289772
 H         -64.806816     -177.649780      -59.878395
 H         -65.051842     -173.327271      -60.849327
 H         -64.458168     -174.030548      -62.311260
 H         -63.150349     -176.238373      -58.820839
 H         -64.292351     -174.876373      -58.633942
 H         -62.957642     -174.160919      -60.351955
 H         -62.936916     -175.626663      -61.199497
