20
 generated by VMD
 C         -30.366247      -74.670517      -21.089027
 N         -31.086657      -75.475067      -20.615080
 H         -27.540918      -74.763214      -19.549122
 H         -29.756674      -73.807854      -21.382513
 C         -26.770023      -74.691109      -20.296871
 C         -26.546379      -75.736656      -21.268047
 C         -26.002190      -73.433731      -20.441595
 C         -25.979156      -75.324371      -22.627230
 C         -25.574270      -73.111641      -21.831276
 C         -24.894981      -74.336632      -22.558502
 H         -27.471569      -76.428322      -21.434351
 H         -25.906082      -76.521645      -20.713324
 H         -26.599661      -72.486298      -20.127924
 H         -25.051800      -73.456810      -19.744061
 H         -26.753443      -74.825119      -23.187471
 H         -25.759323      -76.237480      -23.156252
 H         -24.926357      -72.254715      -21.926121
 H         -26.443300      -72.809059      -22.478064
 H         -24.575766      -74.145416      -23.611359
 H         -24.097433      -74.731842      -21.899158
