20
 generated by VMD
 C         -48.610447     -140.731155      -45.391483
 N         -47.441330     -140.690796      -45.409279
 H         -51.271927     -138.629852      -45.758842
 H         -49.636532     -140.987549      -45.384079
 C         -52.008110     -139.413528      -46.030216
 C         -52.557686     -139.320526      -47.528229
 C         -53.068211     -139.618851      -45.075294
 C         -53.368774     -140.546753      -47.804279
 C         -53.776035     -140.942795      -45.278305
 C         -54.436565     -140.876343      -46.695080
 H         -51.781960     -139.206482      -48.273338
 H         -53.222076     -138.387512      -47.671425
 H         -52.596478     -139.412140      -44.066700
 H         -53.816490     -138.777115      -45.227036
 H         -52.661942     -141.340729      -47.888920
 H         -53.933109     -140.523636      -48.705921
 H         -54.421947     -141.026169      -44.400375
 H         -52.904148     -141.670090      -45.291466
 H         -54.928135     -141.822693      -46.821312
 H         -55.156685     -140.088806      -46.806206
