20
 generated by VMD
 C         -60.340973     -172.109131      -55.255219
 N         -59.896446     -173.095413      -54.849735
 H         -62.853622     -170.552460      -56.576874
 H         -60.673916     -171.214645      -55.752335
 C         -63.287159     -169.752594      -57.182285
 C         -62.728455     -168.320938      -57.368946
 C         -64.787498     -169.707962      -57.125114
 C         -63.265499     -167.812546      -58.767143
 C         -65.292480     -169.190659      -58.478176
 C         -64.727089     -167.881180      -59.022358
 H         -61.722633     -168.111008      -57.247200
 H         -63.282001     -167.545990      -56.629871
 H         -65.353745     -170.579056      -56.896755
 H         -65.228897     -168.983673      -56.394268
 H         -62.710594     -168.423035      -59.572926
 H         -62.997879     -166.763626      -58.930901
 H         -66.368423     -169.099258      -58.484631
 H         -65.218956     -169.968140      -59.175312
 H         -64.938957     -167.807251      -60.071808
 H         -65.408157     -167.216827      -58.504868
