20
 generated by VMD
 C         -23.750813      -68.986282      -16.564384
 N         -23.499567      -69.753601      -15.721688
 H         -23.768116      -66.147400      -19.118793
 H         -23.894688      -68.087708      -17.284031
 C         -24.373867      -67.058945      -19.425314
 C         -24.037090      -67.812157      -20.743179
 C         -25.820747      -67.202324      -19.154987
 C         -24.538483      -69.285004      -20.714005
 C         -26.426273      -68.571075      -19.329531
 C         -26.011410      -69.307373      -20.546167
 H         -22.867960      -67.771629      -20.736776
 H         -24.361580      -67.130684      -21.606771
 H         -25.963926      -66.972008      -18.126413
 H         -26.341837      -66.585716      -19.830019
 H         -24.091829      -69.821465      -19.874176
 H         -24.159521      -69.732658      -21.593227
 H         -27.479155      -68.520729      -19.371822
 H         -26.096050      -69.067711      -18.476736
 H         -26.336588      -70.327812      -20.513767
 H         -26.262445      -68.959175      -21.531706
