20
 generated by VMD
 C         -78.666679     -210.190643      -76.438042
 N         -77.597069     -210.396713      -76.866066
 H         -79.524231     -212.099899      -74.746208
 H         -79.732712     -210.048477      -76.012596
 C         -79.626366     -212.310547      -73.675598
 C         -78.261978     -212.447601      -72.943558
 C         -80.783951     -213.034729      -73.162224
 C         -78.401161     -212.728790      -71.398209
 C         -80.796089     -213.544998      -71.722916
 C         -79.367188     -213.896896      -71.149307
 H         -77.687187     -211.530411      -73.170601
 H         -77.758896     -213.383072      -73.354477
 H         -81.631668     -212.402985      -73.386833
 H         -81.001465     -213.915543      -73.877815
 H         -78.812851     -211.864777      -70.879776
 H         -77.506340     -213.015121      -70.880859
 H         -81.543434     -214.333084      -71.453056
 H         -81.117409     -212.736923      -71.078445
 H         -79.397667     -214.211349      -70.057411
 H         -78.924217     -214.813995      -71.515343
