20
 generated by VMD
 C         -21.888153      -55.607513      -17.613537
 N         -20.838877      -55.628090      -18.124544
 H         -22.060104      -57.338074      -14.796166
 H         -22.783743      -55.451557      -17.193882
 C         -21.756445      -58.360214      -14.682982
 C         -21.513659      -58.831326      -13.342785
 C         -21.600069      -59.415184      -15.787932
 C         -20.983170      -60.307415      -13.262599
 C         -20.223261      -60.037308      -15.732178
 C         -20.023439      -60.751312      -14.297668
 H         -22.331272      -58.615509      -12.714120
 H         -20.725601      -58.190758      -12.923192
 H         -22.405699      -60.200466      -15.860224
 H         -21.588959      -58.703476      -16.644894
 H         -21.840975      -60.985909      -13.435136
 H         -20.663960      -60.585720      -12.216388
 H         -19.482029      -59.221409      -15.821181
 H         -20.147440      -60.798542      -16.554604
 H         -20.003094      -61.829742      -14.433633
 H         -18.986231      -60.465275      -13.915803
