20
 generated by VMD
 C         -67.932930     -178.334686      -57.948601
 N         -66.994102     -178.546432      -57.308990
 H         -65.120682     -176.634613      -59.396305
 H         -68.802017     -177.983810      -58.503933
 C         -64.790932     -175.628418      -59.520622
 C         -65.880920     -174.612518      -59.870174
 C         -63.465847     -175.345535      -60.024643
 C         -65.448311     -173.118790      -59.781605
 C         -63.052933     -173.979233      -59.938343
 C         -64.054153     -173.034271      -60.541470
 H         -66.766609     -174.822678      -59.230598
 H         -66.195084     -174.747253      -60.929672
 H         -62.826576     -176.102921      -59.510258
 H         -63.554054     -175.734756      -61.042614
 H         -65.189316     -172.802734      -58.752331
 H         -66.168907     -172.452484      -60.304619
 H         -62.085754     -173.796005      -60.480125
 H         -62.896133     -173.638382      -58.888046
 H         -63.681034     -172.025192      -60.418728
 H         -64.421486     -173.026062      -61.581051
