20
 generated by VMD
 C         -57.853333     -150.674484      -48.635651
 N         -58.117836     -151.763000      -48.589188
 H         -55.045704     -149.383209      -47.485561
 H         -57.647514     -149.626007      -48.665806
 C         -54.882442     -149.077850      -48.565628
 C         -53.948017     -149.902451      -49.446091
 C         -54.835495     -147.568909      -48.814331
 C         -54.252773     -149.727676      -50.879444
 C         -55.023613     -147.278870      -50.271984
 C         -54.109131     -148.260315      -51.113930
 H         -54.062862     -150.924911      -49.055237
 H         -52.912952     -149.678421      -49.316265
 H         -55.525349     -146.961441      -48.291698
 H         -53.827522     -147.233810      -48.427139
 H         -55.221786     -150.187149      -51.152771
 H         -53.504795     -150.227463      -51.548092
 H         -54.854145     -146.209183      -50.622395
 H         -56.113949     -147.413132      -50.602169
 H         -54.444084     -148.199829      -52.124554
 H         -53.019695     -147.930664      -51.124130
