20
 generated by VMD
 C         -72.731781     -198.688202      -65.628082
 N         -73.687843     -198.982300      -66.203957
 H         -70.919678     -195.985382      -67.736427
 H         -71.703094     -198.374664      -65.363380
 C         -72.000542     -196.189880      -67.730209
 C         -72.918129     -195.334122      -66.985344
 C         -72.437454     -196.845688      -69.036049
 C         -74.284996     -195.287628      -67.547119
 C         -73.918777     -197.384735      -69.027328
 C         -74.796143     -196.557343      -68.105774
 H         -72.402611     -194.408875      -66.993904
 H         -73.021400     -195.588120      -65.885841
 H         -72.261734     -196.187134      -69.890121
 H         -71.920128     -197.791199      -69.035789
 H         -74.258438     -194.652863      -68.453987
 H         -75.071228     -194.822281      -66.979752
 H         -74.062370     -198.418533      -68.776329
 H         -74.213158     -197.433731      -70.102852
 H         -75.807968     -196.370117      -68.460220
 H         -75.089935     -197.123825      -67.149986
