20
 generated by VMD
 C         -45.115288     -122.891167      -35.420437
 N         -45.563953     -123.961090      -35.133015
 H         -45.050297     -122.652786      -38.608723
 H         -44.755642     -121.889221      -35.574303
 C         -44.868645     -121.700279      -39.210567
 C         -43.400597     -121.397621      -39.624531
 C         -45.989662     -120.698555      -39.557892
 C         -43.333755     -120.699257      -40.964329
 C         -45.790344     -120.042091      -40.905785
 C         -44.365005     -119.566536      -41.066807
 H         -42.642605     -122.255730      -39.651211
 H         -42.995407     -120.683571      -38.866783
 H         -47.056465     -121.079788      -39.465874
 H         -45.845615     -120.057251      -38.660244
 H         -43.457901     -121.421875      -41.779308
 H         -42.326218     -120.402802      -41.136005
 H         -46.622810     -119.339897      -41.003578
 H         -46.087921     -120.621124      -41.715656
 H         -44.380108     -118.986893      -42.000416
 H         -44.274895     -118.865211      -40.157219
