20
 generated by VMD
 C         -72.472878     -198.821426      -65.571739
 N         -73.474396     -199.412674      -65.695274
 H         -71.001984     -195.992554      -67.584473
 H         -71.629089     -198.224258      -65.320198
 C         -72.060020     -196.071335      -67.789619
 C         -72.881966     -194.947617      -67.099136
 C         -72.508186     -196.601578      -69.087097
 C         -74.308731     -194.923920      -67.764191
 C         -73.921700     -197.178574      -68.928596
 C         -74.773186     -196.356461      -67.965462
 H         -72.368561     -193.937485      -66.850334
 H         -73.005798     -195.270096      -66.068298
 H         -72.431168     -195.884995      -69.907059
 H         -71.787033     -197.305527      -69.494270
 H         -74.123764     -194.432236      -68.692062
 H         -74.981644     -194.331818      -67.106361
 H         -73.878769     -198.281082      -68.634186
 H         -74.493279     -197.083771      -69.837837
 H         -75.835464     -196.334717      -68.434586
 H         -74.850700     -196.784271      -67.002510
