20
 generated by VMD
 C         -11.927487      -26.214277       -0.101504
 N         -12.848164      -26.264835       -0.745427
 H         -10.109801      -26.360731       -3.431947
 H          -9.334574      -25.669369       -4.908868
 C          -9.094344      -26.142490       -3.928643
 C          -8.169351      -27.319109       -4.145229
 C          -8.534295      -25.086691       -3.030406
 C          -6.767864      -26.906754       -4.666342
 C          -7.138955      -24.686623       -3.359786
 C          -6.169738      -25.801111       -3.777273
 H          -8.582300      -28.015621       -4.970151
 H          -8.049250      -27.842585       -3.202776
 H          -9.181819      -24.220953       -3.115708
 H          -8.441854      -25.444881       -1.970985
 H          -6.896607      -26.467731       -5.683611
 H          -6.125695      -27.827438       -4.743371
 H          -6.779107      -24.112309       -2.490236
 H          -7.105162      -23.917837       -4.164129
 H          -5.307914      -25.316360       -4.257541
 H          -5.727723      -26.218695       -2.870532
