20
 generated by VMD
 C         -15.141604      -46.387398       -5.796276
 N         -14.877181      -47.426697       -5.453046
 H         -15.796030      -45.428169       -9.497672
 H         -14.748590      -45.455944      -10.887012
 C         -15.818719      -45.376621      -10.617242
 C         -16.446650      -44.108288      -11.174671
 C         -16.507858      -46.616978      -11.151627
 C         -16.565601      -43.987305      -12.724503
 C         -16.692440      -46.422668      -12.662274
 C         -17.365921      -45.137459      -13.214540
 H         -15.853360      -43.210293      -10.861735
 H         -17.473345      -43.982304      -10.823439
 H         -15.900063      -47.511391      -11.003176
 H         -17.441433      -46.725185      -10.566239
 H         -15.547996      -44.114887      -13.150643
 H         -16.942261      -42.997623      -12.982098
 H         -17.321484      -47.288544      -12.991576
 H         -15.648829      -46.537720      -13.158119
 H         -17.254423      -45.083290      -14.305917
 H         -18.434414      -45.191002      -13.006612
