20
 generated by VMD
 C         -46.293556     -124.273308      -35.840984
 N         -46.856686     -125.247452      -35.550640
 H         -44.517384     -121.900970      -37.943329
 H         -45.893772     -123.411743      -36.380642
 C         -44.594791     -121.563683      -39.012775
 C         -43.232655     -121.443710      -39.786671
 C         -45.676750     -120.772499      -39.555134
 C         -43.509403     -121.703705      -41.294968
 C         -45.906876     -120.928261      -41.106758
 C         -44.628651     -120.850708      -41.876507
 H         -42.446762     -122.037575      -39.357521
 H         -42.734814     -120.434708      -39.580677
 H         -46.578999     -120.989708      -39.014755
 H         -45.296989     -119.750923      -39.363438
 H         -43.659565     -122.766296      -41.569992
 H         -42.608871     -121.552399      -41.981102
 H         -46.740292     -120.190346      -41.463245
 H         -46.371807     -121.944649      -41.013287
 H         -44.828381     -121.180595      -42.918003
 H         -44.313477     -119.819809      -41.795910
