20
 generated by VMD
 C         -50.686565     -129.975388      -45.032391
 N         -51.497929     -129.206757      -44.859283
 H         -49.139301     -129.488708      -42.467865
 H         -49.992119     -130.787338      -45.175030
 C         -48.188736     -129.648087      -42.131504
 C         -47.937557     -130.991196      -41.592255
 C         -47.514023     -128.509155      -41.603909
 C         -46.495697     -131.226425      -41.174744
 C         -46.070835     -128.850220      -41.211399
 C         -45.897846     -130.092346      -40.320866
 H         -48.095615     -131.665573      -42.449837
 H         -48.614128     -131.278732      -40.850685
 H         -47.452660     -127.792870      -42.483456
 H         -47.991146     -128.091278      -40.715073
 H         -45.768887     -131.373978      -41.955269
 H         -46.458073     -132.176956      -40.637592
 H         -45.554226     -127.926903      -40.712795
 H         -45.509151     -129.094635      -42.131676
 H         -44.813480     -130.165985      -40.042023
 H         -46.521946     -129.929230      -39.431572
