20
 generated by VMD
 C         -19.852692      -61.020012      -17.097721
 N         -19.536659      -60.646576      -16.008640
 H         -22.804710      -61.509571      -17.946009
 H         -20.248154      -61.472118      -17.909716
 C         -23.014133      -62.559944      -17.630993
 C         -24.093039      -63.279240      -18.486412
 C         -22.838343      -62.842091      -16.195080
 C         -24.295979      -64.689575      -18.045763
 C         -23.401411      -64.208412      -15.808577
 C         -24.692675      -64.554779      -16.586788
 H         -23.705723      -63.311455      -19.488876
 H         -24.954908      -62.706280      -18.373796
 H         -21.787264      -63.027962      -15.900289
 H         -23.300001      -62.041306      -15.714681
 H         -23.386366      -65.272423      -18.216036
 H         -25.086857      -65.221382      -18.612654
 H         -23.488506      -64.254837      -14.712017
 H         -22.691929      -64.957382      -16.186449
 H         -24.924343      -65.567039      -16.130615
 H         -25.589584      -64.007530      -16.311604
