20
 generated by VMD
 C         -30.982010      -77.809692      -25.292501
 N         -31.926464      -77.075455      -25.467163
 H         -28.989601      -76.723450      -22.085463
 H         -30.061693      -78.313866      -25.521658
 C         -28.593500      -77.714951      -22.223072
 C         -27.456507      -78.023819      -23.228186
 C         -29.095684      -78.946220      -21.476259
 C         -26.369368      -78.830795      -22.552502
 C         -27.955254      -79.805435      -20.837942
 C         -26.869301      -80.092346      -21.901283
 H         -26.973032      -77.011398      -23.408615
 H         -27.801594      -78.676727      -24.107178
 H         -29.758209      -78.640938      -20.689819
 H         -29.604612      -79.697746      -22.121988
 H         -25.787554      -78.301788      -21.766619
 H         -25.585266      -78.904388      -23.303907
 H         -28.405737      -80.610046      -20.188887
 H         -27.461960      -79.124596      -20.116423
 H         -26.087902      -80.736633      -21.563089
 H         -27.362799      -80.776764      -22.583273
