20
 generated by VMD
 C         -23.381264      -54.012371      -14.850019
 N         -24.263018      -53.421741      -15.236456
 H         -20.019791      -54.717789      -15.591188
 H         -22.390182      -54.358635      -14.676154
 C         -19.436205      -55.143967      -14.815259
 C         -19.063829      -54.344173      -13.568871
 C         -18.968668      -56.573944      -14.878543
 C         -18.373154      -55.116966      -12.454906
 C         -17.968138      -57.176579      -13.892091
 C         -17.374516      -56.138519      -12.878041
 H         -20.050323      -53.983959      -13.167338
 H         -18.380487      -53.588337      -13.983194
 H         -19.921890      -57.096767      -14.669622
 H         -18.661526      -56.836140      -15.871157
 H         -19.185230      -55.571030      -11.829178
 H         -17.788322      -54.430855      -11.864276
 H         -17.106718      -57.558529      -14.415976
 H         -18.454401      -58.063335      -13.404038
 H         -16.940762      -56.647995      -12.018510
 H         -16.569189      -55.649628      -13.330924
