20
 generated by VMD
 C         -30.839886      -75.822723      -22.516533
 N         -31.160816      -74.778625      -22.891773
 H         -28.812117      -78.411324      -21.558590
 H         -30.592154      -76.773529      -22.088308
 C         -28.016109      -77.703621      -21.687431
 C         -26.764605      -78.177567      -22.459309
 C         -27.613649      -76.721977      -20.598209
 C         -25.982740      -76.899376      -23.123825
 C         -26.815300      -75.464752      -21.162334
 C         -25.622532      -75.893707      -22.044622
 H         -27.129662      -78.780579      -23.201223
 H         -26.078077      -78.566772      -21.703173
 H         -28.550177      -76.337791      -20.175724
 H         -27.138758      -77.153374      -19.738180
 H         -26.783510      -76.545624      -23.767027
 H         -25.102028      -77.161354      -23.739975
 H         -26.289179      -74.788223      -20.345158
 H         -27.527409      -74.782761      -21.713940
 H         -25.485935      -74.933594      -22.637110
 H         -24.711729      -76.077881      -21.515430
