20
 generated by VMD
 C         -68.205612     -193.665878      -65.483871
 N         -68.186623     -194.818222      -65.189491
 H         -70.969048     -192.216049      -67.690140
 H         -68.425201     -192.556442      -65.664032
 C         -71.734985     -192.041656      -66.951569
 C         -72.011536     -190.781708      -66.301704
 C         -72.356491     -193.262894      -66.387596
 C         -73.501762     -190.696091      -66.234161
 C         -73.216019     -193.054489      -65.227112
 C         -74.146469     -191.904755      -65.438545
 H         -71.533623     -189.825562      -66.837791
 H         -71.566978     -190.806076      -65.291046
 H         -72.934296     -193.749817      -67.229752
 H         -71.741783     -194.177094      -66.173645
 H         -73.904747     -190.518433      -67.215607
 H         -73.614548     -189.737030      -65.760643
 H         -72.592361     -192.769348      -64.389641
 H         -73.641884     -193.969055      -64.887245
 H         -75.008644     -192.228134      -65.909538
 H         -74.517471     -191.526642      -64.411629
