20
 generated by VMD
 C         -59.916767     -156.803268      -56.183987
 N         -61.001530     -156.288208      -56.318031
 H         -59.684036     -157.559189      -53.431015
 H         -59.001335     -157.265869      -55.872257
 C         -58.830658     -157.917175      -52.787228
 C         -57.710098     -157.052155      -52.402996
 C         -58.682693     -159.391830      -52.470722
 C         -57.308895     -157.236832      -51.010239
 C         -58.413738     -159.506714      -50.993347
 C         -57.186172     -158.716949      -50.618980
 H         -58.055317     -156.029358      -52.603706
 H         -56.978336     -157.243835      -53.071316
 H         -59.546398     -160.009277      -52.602745
 H         -57.932339     -159.824738      -53.117733
 H         -58.003475     -156.847549      -50.336411
 H         -56.391190     -156.649460      -50.763893
 H         -58.297523     -160.557144      -50.694981
 H         -59.248543     -159.220032      -50.367268
 H         -57.117725     -158.759155      -49.598495
 H         -56.267899     -159.166214      -51.126209
