20
 generated by VMD
 C         -38.571194     -113.330971      -36.315598
 N         -37.416721     -113.294029      -36.135727
 H         -41.343235     -114.702850      -34.969257
 H         -39.621761     -113.039261      -36.615120
 C         -42.209057     -114.547424      -35.570080
 C         -42.117832     -114.671707      -37.061958
 C         -43.505768     -114.187897      -34.965450
 C         -43.423489     -115.006882      -37.835999
 C         -44.754936     -114.794998      -35.689285
 C         -44.724979     -114.456886      -37.150375
 H         -41.370441     -115.536697      -37.222717
 H         -41.634293     -113.758659      -37.525299
 H         -43.548843     -114.504555      -33.947575
 H         -43.494904     -113.107025      -34.912518
 H         -43.478241     -116.096054      -37.818001
 H         -43.389050     -114.699432      -38.945492
 H         -45.700962     -114.326050      -35.231377
 H         -44.927425     -115.928741      -35.483440
 H         -45.654087     -114.784874      -37.600163
 H         -44.707073     -113.350487      -37.380951
