20
 generated by VMD
 C         -56.655693     -150.036606      -47.864471
 N         -57.631660     -150.541641      -48.316479
 H         -53.445572     -148.629547      -47.262238
 H         -55.716362     -149.734573      -47.337460
 C         -53.945282     -148.453232      -48.283749
 C         -53.375244     -149.094269      -49.537922
 C         -54.804626     -147.243118      -48.615631
 C         -54.266327     -148.997559      -50.728210
 C         -55.546322     -147.048355      -49.975029
 C         -54.764454     -147.634979      -51.045013
 H         -52.946354     -150.147858      -49.228226
 H         -52.416714     -148.619324      -49.742882
 H         -55.614803     -147.260086      -47.864796
 H         -54.276749     -146.249420      -48.468735
 H         -55.040558     -149.764832      -50.915821
 H         -53.582355     -149.108902      -51.564888
 H         -55.795876     -145.991867      -50.129997
 H         -56.596577     -147.489182      -49.694862
 H         -55.327408     -147.603271      -51.990028
 H         -53.835785     -146.979019      -51.239590
