20
 generated by VMD
 C         -52.723938     -147.183578      -45.376427
 N         -53.827038     -147.377502      -45.069817
 H         -54.700253     -147.383057      -48.009068
 H         -51.678238     -147.097336      -45.677479
 C         -54.542854     -146.436874      -48.575516
 C         -53.332226     -146.340057      -49.403309
 C         -55.187412     -145.247345      -48.099144
 C         -53.369881     -145.152176      -50.335091
 C         -55.201565     -144.040054      -48.938595
 C         -53.845955     -143.851227      -49.663750
 H         -53.191784     -147.209808      -50.026020
 H         -52.430244     -146.172104      -48.787006
 H         -56.216576     -145.405853      -47.819130
 H         -54.560856     -144.901428      -47.265797
 H         -53.931480     -145.460190      -51.188553
 H         -52.388996     -144.896271      -50.632229
 H         -55.481136     -143.132126      -48.471199
 H         -55.927315     -144.279816      -49.741615
 H         -54.079494     -143.204422      -50.482193
 H         -53.194530     -143.438232      -48.887184
