20
 generated by VMD
 C         -19.377239      -61.512890      -16.159975
 N         -20.079828      -60.948689      -16.893711
 H         -21.751192      -62.927948      -18.029167
 H         -18.799574      -62.255039      -15.457870
 C         -22.630327      -63.465439      -17.701530
 C         -23.821945      -63.568886      -18.587467
 C         -23.131084      -63.541519      -16.325638
 C         -24.838617      -64.718620      -18.499979
 C         -23.959223      -64.786392      -16.026257
 C         -25.199749      -64.887390      -17.040407
 H         -23.417429      -63.574211      -19.612017
 H         -24.331968      -62.601448      -18.593943
 H         -22.392790      -63.522984      -15.540380
 H         -23.691746      -62.650497      -16.084618
 H         -24.298645      -65.575768      -18.907848
 H         -25.699993      -64.478333      -19.048485
 H         -24.373808      -64.746307      -14.959371
 H         -23.460485      -65.793259      -16.026709
 H         -25.517717      -65.887146      -16.780100
 H         -25.906576      -64.154984      -16.704584
