20
 generated by VMD
 C         -11.416144      -25.928619       -0.856357
 N         -11.163107      -24.935663       -0.430550
 H          -7.555142      -26.014809       -1.016737
 H          -8.964133      -25.568375       -2.025451
 C          -7.870620      -25.515068       -1.937832
 C          -7.434345      -26.349194       -3.162039
 C          -7.364704      -24.056787       -1.995012
 C          -7.638690      -25.762096       -4.536088
 C          -7.580235      -23.444929       -3.360613
 C          -7.025797      -24.267572       -4.543983
 H          -7.834850      -27.326735       -3.126172
 H          -6.395101      -26.633327       -3.000475
 H          -7.843786      -23.404837       -1.198934
 H          -6.314069      -23.957666       -1.767780
 H          -8.705676      -25.617228       -4.729352
 H          -7.388058      -26.455910       -5.318041
 H          -7.243253      -22.389601       -3.439480
 H          -8.683699      -23.509789       -3.433423
 H          -7.247123      -23.816122       -5.563651
 H          -5.959393      -24.296593       -4.333761
