20
 generated by VMD
 C         -11.476008      -32.191380       -8.923487
 N         -12.236029      -32.672417       -9.618002
 H         -11.619744      -33.798805       -6.417125
 H         -12.331553      -34.330463       -4.869885
 C         -11.969019      -34.643211       -5.864393
 C         -10.885388      -35.661930       -5.547808
 C         -13.173416      -35.184471       -6.515432
 C         -11.475982      -36.781818       -4.597513
 C         -13.724199      -36.376770       -5.757982
 C         -12.698886      -37.407326       -5.313400
 H          -9.992414      -35.271496       -5.028243
 H         -10.661884      -36.182293       -6.456719
 H         -13.990460      -34.433334       -6.547813
 H         -12.948883      -35.534203       -7.539835
 H         -11.775984      -36.309155       -3.634273
 H         -10.661038      -37.535408       -4.477045
 H         -14.480373      -36.902245       -6.310875
 H         -14.205637      -35.927452       -4.819406
 H         -13.210418      -38.044308       -4.560473
 H         -12.453252      -38.058853       -6.099288
