20
 generated by VMD
 C         -50.414890     -131.803329      -47.024845
 N         -50.005184     -132.199799      -48.001755
 H         -48.740845     -131.394531      -43.668251
 H         -50.572220     -131.738617      -45.949421
 C         -48.773090     -132.283844      -43.002159
 C         -49.524288     -133.471390      -43.486252
 C         -48.636696     -132.047745      -41.544937
 C         -49.045185     -134.719833      -42.774639
 C         -48.226124     -133.402344      -40.793041
 C         -49.271774     -134.488174      -41.262936
 H         -49.456017     -133.819336      -44.537983
 H         -50.519611     -133.357422      -43.284355
 H         -47.712341     -131.413422      -41.336510
 H         -49.411690     -131.482193      -41.072845
 H         -48.003868     -135.051834      -42.963619
 H         -49.643993     -135.606613      -42.918205
 H         -48.125866     -133.141113      -39.764828
 H         -47.166233     -133.757462      -40.941460
 H         -48.967876     -135.368027      -40.783634
 H         -50.350460     -134.139008      -41.049118
