20
 generated by VMD
 C         -79.453888     -206.494293      -73.454483
 N         -80.480942     -206.184235      -73.004410
 H         -78.013763     -204.993484      -70.549667
 H         -78.472725     -206.660248      -73.740158
 C         -76.980133     -205.281586      -70.601845
 C         -75.922394     -204.362411      -71.059036
 C         -76.639862     -206.630905      -70.088013
 C         -74.651192     -204.475830      -70.145134
 C         -75.495621     -206.469894      -69.104469
 C         -74.239479     -205.899277      -69.790840
 H         -76.203972     -203.252640      -71.008415
 H         -75.586670     -204.569214      -72.065552
 H         -77.651588     -206.789093      -69.648788
 H         -76.478981     -207.350082      -70.892632
 H         -74.778473     -203.992462      -69.187386
 H         -73.788551     -204.091064      -70.573143
 H         -75.288246     -207.463013      -68.587906
 H         -75.667412     -205.761749      -68.191505
 H         -73.414391     -206.024597      -69.047020
 H         -73.871315     -206.311066      -70.711121
