20
 generated by VMD
 C         -70.440872     -181.216644      -63.889168
 N         -70.853531     -182.156052      -63.343334
 H         -67.970619     -181.452698      -60.961632
 H         -70.041977     -180.319687      -64.332039
 C         -67.180092     -180.796951      -60.802345
 C         -66.000298     -181.655304      -60.495651
 C         -67.377167     -179.318985      -60.482063
 C         -64.699402     -180.853363      -60.716263
 C         -66.077171     -178.545670      -60.911232
 C         -64.858322     -179.317169      -60.289330
 H         -65.957108     -182.623642      -60.904831
 H         -65.968353     -181.981277      -59.462746
 H         -68.239891     -179.046875      -61.065323
 H         -67.630287     -179.300903      -59.420948
 H         -64.333290     -180.780533      -61.770313
 H         -63.933258     -181.369278      -60.155289
 H         -66.162117     -177.554321      -60.493610
 H         -66.025902     -178.528366      -62.021301
 H         -63.927364     -178.759872      -60.567909
 H         -64.781799     -179.272125      -59.119953
