20
 generated by VMD
 C         -28.203856      -87.967644      -26.508636
 N         -28.288195      -86.871353      -26.060417
 H         -31.361198      -89.480789      -25.971621
 H         -28.085562      -89.030235      -26.845110
 C         -32.224274      -88.876869      -26.239574
 C         -33.119991      -88.713348      -25.105164
 C         -32.653713      -88.834938      -27.608965
 C         -34.366444      -87.917969      -25.397871
 C         -33.750744      -87.631393      -27.851105
 C         -34.920734      -87.824211      -26.842064
 H         -32.461369      -88.323929      -24.247534
 H         -33.495720      -89.840439      -24.948286
 H         -31.935038      -88.614044      -28.377571
 H         -33.152145      -89.767357      -27.803219
 H         -34.043568      -86.899628      -24.968971
 H         -35.236683      -88.181129      -24.670919
 H         -34.032799      -87.644241      -28.958466
 H         -33.160740      -86.718254      -27.781149
 H         -35.567856      -86.990814      -26.936811
 H         -35.386570      -88.745445      -27.023037
