20
 generated by VMD
 C         -11.007751      -34.999313       -9.249066
 N         -10.505955      -35.219341       -8.294252
 H         -12.397860      -37.035614       -7.160995
 H         -13.647718      -37.259197       -5.957142
 C         -13.261147      -37.706066       -6.935093
 C         -12.690906      -39.061096       -6.724520
 C         -14.414436      -37.675449       -7.881517
 C         -13.786047      -39.989365       -6.308435
 C         -15.434350      -38.699318       -7.671779
 C         -14.854876      -40.055882       -7.412402
 H         -11.838646      -38.963764       -6.024502
 H         -12.188353      -39.478970       -7.646138
 H         -14.868238      -36.674103       -7.995687
 H         -13.996778      -37.839554       -8.949424
 H         -14.220021      -39.707924       -5.339645
 H         -13.398666      -41.070419       -6.089418
 H         -16.083569      -38.729675       -8.498339
 H         -16.056185      -38.359344       -6.793606
 H         -15.625556      -40.757000       -7.139974
 H         -14.376343      -40.423214       -8.355217
