20
 generated by VMD
 C         -60.377544     -172.094681      -55.278809
 N         -59.914406     -173.116028      -54.841408
 H         -62.853035     -170.643204      -56.682777
 H         -60.884068     -171.215317      -55.713463
 C         -63.251472     -169.749039      -57.165249
 C         -62.762615     -168.303070      -57.387150
 C         -64.788422     -169.730423      -57.144211
 C         -63.259880     -167.819061      -58.760967
 C         -65.290764     -169.197296      -58.487698
 C         -64.743629     -167.905380      -59.010139
 H         -61.570812     -168.137543      -57.333839
 H         -63.187138     -167.723083      -56.669285
 H         -65.336136     -170.725647      -57.020718
 H         -65.114738     -168.989426      -56.433155
 H         -62.770401     -168.311600      -59.532948
 H         -62.875313     -166.789963      -58.836052
 H         -66.417480     -169.157455      -58.368645
 H         -65.099655     -170.093277      -59.200191
 H         -64.978592     -167.921616      -60.104202
 H         -65.301102     -167.092163      -58.459457
