20
 generated by VMD
 C         -58.107128     -166.590500      -56.183647
 N         -58.157394     -167.337524      -55.245705
 H         -60.541721     -165.620590      -55.287334
 H         -58.197716     -165.793030      -56.910610
 C         -61.586098     -165.683533      -55.524559
 C         -61.805397     -166.949158      -56.415531
 C         -62.513672     -164.476089      -55.586445
 C         -63.246967     -167.266830      -56.458534
 C         -63.935917     -164.927338      -55.479195
 C         -64.283707     -166.015015      -56.548332
 H         -61.186893     -167.714096      -55.971512
 H         -61.318130     -166.714172      -57.408554
 H         -62.308460     -163.850433      -54.616917
 H         -62.301632     -163.850296      -56.418640
 H         -63.424438     -167.693481      -55.463535
 H         -63.450573     -168.044113      -57.202076
 H         -64.726311     -164.156052      -55.472492
 H         -64.101273     -165.360840      -54.515106
 H         -65.294937     -166.385880      -56.510704
 H         -64.101028     -165.711563      -57.579475
