20
 generated by VMD
 C         -79.441879     -206.318985      -73.362312
 N         -80.479172     -206.267792      -72.907364
 H         -78.008316     -204.731308      -70.701454
 H         -78.471535     -206.645340      -73.813240
 C         -77.015549     -205.199219      -70.660706
 C         -75.796356     -204.430511      -71.110252
 C         -76.642845     -206.574860      -70.123978
 C         -74.671036     -204.398575      -70.115273
 C         -75.447716     -206.524155      -69.145660
 C         -74.279465     -205.796753      -69.680168
 H         -76.146927     -203.403946      -71.231552
 H         -75.488617     -204.787003      -72.100410
 H         -77.337799     -207.153900      -69.506340
 H         -76.352409     -207.203018      -71.010864
 H         -74.897697     -203.771698      -69.218132
 H         -73.818222     -203.829437      -70.566727
 H         -75.192978     -207.504059      -68.893211
 H         -75.910782     -205.986053      -68.219261
 H         -73.405807     -205.673340      -69.083557
 H         -73.999466     -206.509781      -70.494614
