20
 generated by VMD
 C         -11.974434      -37.449280       -7.379283
 N         -11.079010      -37.855389       -7.881870
 H         -12.398715      -40.978512       -8.478215
 H         -13.437661      -40.314968       -7.140358
 C         -13.449492      -40.767506       -8.151665
 C         -14.226419      -42.130653       -8.054951
 C         -14.099777      -39.863094       -9.292705
 C         -15.712472      -41.984699       -7.830383
 C         -15.598870      -39.689148       -9.126682
 C         -16.367058      -41.041588       -8.907033
 H         -13.704155      -42.683403       -7.242788
 H         -14.125805      -42.560574       -9.046875
 H         -13.586988      -38.855083       -9.284289
 H         -13.891636      -40.416775      -10.200944
 H         -15.857520      -41.567368       -6.823390
 H         -16.158934      -42.982288       -7.970822
 H         -16.061499      -39.196957       -9.994634
 H         -15.888448      -39.041153       -8.269654
 H         -17.405973      -40.698017       -8.615766
 H         -16.489704      -41.540489       -9.882956
