20
 generated by VMD
 C         -68.602554     -185.724762      -66.116760
 N         -68.885017     -186.094391      -67.197853
 H         -69.436333     -182.996185      -63.663250
 H         -68.357628     -185.436752      -65.095421
 C         -69.213715     -183.802521      -62.889324
 C         -70.333160     -184.763794      -62.544640
 C         -67.971848     -183.730469      -62.112869
 C         -70.084717     -185.872513      -61.493431
 C         -67.697052     -184.928970      -61.165207
 C         -68.540581     -186.165085      -61.598469
 H         -70.581139     -185.279343      -63.530861
 H         -71.312866     -184.275864      -62.318062
 H         -67.217606     -183.690552      -62.947269
 H         -67.765915     -182.757004      -61.695305
 H         -70.543800     -186.878448      -61.582722
 H         -70.383659     -185.394836      -60.534763
 H         -68.020851     -184.600403      -60.182381
 H         -66.696632     -185.349014      -61.179356
 H         -68.361763     -186.595291      -62.747410
 H         -68.274239     -186.997498      -60.936707
