20
 generated by VMD
 C         -51.190681     -145.424820      -44.173523
 N         -51.217281     -146.391418      -44.744267
 H         -53.836159     -145.205811      -47.051090
 H         -51.328590     -144.501480      -43.680271
 C         -53.692184     -144.157196      -47.358009
 C         -52.683819     -144.008865      -48.595558
 C         -54.753891     -143.073517      -47.244270
 C         -53.388710     -143.806946      -49.878372
 C         -55.481892     -142.898361      -48.607227
 C         -54.448471     -142.662399      -49.771313
 H         -52.119373     -145.067169      -48.722923
 H         -51.905342     -143.272522      -48.363804
 H         -55.276173     -143.167496      -46.343582
 H         -54.337830     -142.061035      -46.987469
 H         -53.883068     -144.635498      -50.377453
 H         -52.693481     -143.441650      -50.690475
 H         -56.288334     -142.076569      -48.582470
 H         -55.946144     -143.809631      -48.934277
 H         -55.050079     -142.575333      -50.736729
 H         -53.743317     -141.681381      -49.671566
