20
 generated by VMD
 C         -47.593071     -124.710640      -38.055016
 N         -47.403801     -125.690002      -38.705498
 H         -44.750500     -122.441216      -37.694386
 H         -47.988716     -123.809357      -37.648533
 C         -44.876698     -122.567749      -38.752300
 C         -43.735558     -123.343460      -39.508533
 C         -45.720493     -121.686653      -39.562160
 C         -44.213886     -123.842819      -40.885235
 C         -46.099697     -122.309311      -40.892155
 C         -44.883686     -122.788872      -41.651825
 H         -43.283035     -124.095215      -38.839069
 H         -42.970322     -122.576683      -39.708958
 H         -46.609333     -121.496117      -38.991703
 H         -45.211159     -120.749557      -39.775826
 H         -44.886139     -124.773109      -40.823879
 H         -43.358307     -124.332916      -41.553947
 H         -46.760288     -121.536995      -41.402325
 H         -46.960949     -123.063225      -40.554928
 H         -45.285118     -123.172668      -42.627686
 H         -44.145992     -122.000793      -41.852692
