20
 generated by VMD
 C         -69.121933     -194.834595      -65.423820
 N         -68.555527     -194.176361      -64.618080
 H         -71.239746     -194.111664      -68.013275
 H         -69.592468     -195.407623      -66.245453
 C         -72.065079     -193.668106      -67.424896
 C         -71.590103     -192.534882      -66.510452
 C         -73.340935     -194.291687      -67.092491
 C         -72.752174     -192.317200      -65.454399
 C         -74.492134     -193.212051      -67.094193
 C         -74.103737     -192.101425      -66.149796
 H         -71.227264     -191.659546      -67.054649
 H         -70.793343     -192.877350      -65.960258
 H         -73.646034     -195.102066      -67.802643
 H         -73.199242     -194.899170      -66.263214
 H         -72.547264     -191.407578      -64.955811
 H         -72.638214     -193.138885      -64.743439
 H         -75.383446     -193.700409      -66.728699
 H         -74.735924     -192.797043      -68.079750
 H         -74.008453     -191.144241      -66.824364
 H         -74.958168     -191.913193      -65.425354
