20
 generated by VMD
 C         -38.670467     -113.744949      -35.617233
 N         -37.979832     -114.650482      -35.710773
 H         -41.192429     -114.459473      -35.999722
 H         -39.282764     -112.822929      -35.762093
 C         -42.254650     -114.554489      -36.318810
 C         -42.480656     -114.579018      -37.797920
 C         -43.468609     -114.351540      -35.390446
 C         -43.708893     -115.475121      -38.222797
 C         -44.646450     -115.300728      -35.782562
 C         -44.874035     -115.270760      -37.240799
 H         -41.543396     -115.026817      -38.312790
 H         -42.677113     -113.495552      -38.131870
 H         -43.274014     -114.436836      -34.261497
 H         -43.780323     -113.244850      -35.399296
 H         -43.601192     -116.584686      -38.097572
 H         -44.073792     -115.309677      -39.222771
 H         -45.463463     -115.057396      -35.033215
 H         -44.443386     -116.401886      -35.538483
 H         -45.620361     -116.046242      -37.679890
 H         -45.223709     -114.192657      -37.490688
