20
 generated by VMD
 C         -48.193787     -136.233490      -46.108791
 N         -47.041088     -136.096664      -46.112083
 H         -51.753113     -135.232666      -45.964695
 H         -49.231525     -136.345535      -45.879280
 C         -51.558159     -136.145432      -45.427544
 C         -52.224155     -137.336777      -45.992168
 C         -51.544529     -136.085464      -43.905785
 C         -51.937496     -138.669647      -45.361080
 C         -51.263714     -137.436768      -43.179333
 C         -51.967342     -138.612015      -43.779514
 H         -51.959694     -137.319351      -47.053143
 H         -53.302048     -137.153763      -45.961411
 H         -50.919586     -135.278259      -43.625118
 H         -52.577312     -135.743561      -43.699211
 H         -51.026703     -139.138641      -45.709595
 H         -52.704407     -139.331375      -45.508247
 H         -51.649529     -137.401688      -42.159927
 H         -50.210545     -137.702148      -43.122238
 H         -51.375278     -139.560333      -43.370548
 H         -53.113609     -138.529739      -43.391670
