20
 generated by VMD
 C         -58.413315     -160.034851      -57.030067
 N         -58.608723     -159.877716      -58.169941
 H         -58.662857     -162.923889      -54.851376
 H         -58.321995     -160.132721      -55.969345
 C         -59.508030     -162.977081      -54.189732
 C         -59.319363     -163.081039      -52.687561
 C         -60.930386     -162.908875      -54.703163
 C         -60.249565     -162.002899      -52.045006
 C         -62.075329     -162.194244      -53.843410
 C         -61.810394     -162.288620      -52.345188
 H         -58.302895     -162.916702      -52.398125
 H         -59.596195     -164.006973      -52.298698
 H         -60.937294     -162.416397      -55.743641
 H         -61.209656     -163.942886      -54.685383
 H         -59.964157     -161.010178      -52.328548
 H         -60.271744     -162.038345      -50.886700
 H         -63.124046     -162.604843      -54.025108
 H         -62.183216     -161.145248      -54.406815
 H         -62.483570     -161.556900      -51.821320
 H         -62.145744     -163.240112      -51.957733
