20
 generated by VMD
 C          -6.650033      -22.615543        2.010693
 N          -6.176960      -22.883369        2.979749
 H          -5.641116      -20.078218       -0.468697
 H          -7.212500      -20.909346       -0.379422
 C          -6.474616      -20.468494       -1.001908
 C          -5.993930      -21.530500       -1.941895
 C          -7.188248      -19.314854       -1.702743
 C          -7.004833      -22.092566       -2.925774
 C          -8.278092      -19.830841       -2.725115
 C          -7.686834      -20.945173       -3.673693
 H          -5.422244      -22.367764       -1.460118
 H          -5.154731      -21.042479       -2.532402
 H          -7.651550      -18.633465       -0.984127
 H          -6.551726      -18.723988       -2.414191
 H          -7.765204      -22.621613       -2.334006
 H          -6.507312      -22.768723       -3.637164
 H          -8.571340      -18.953358       -3.324359
 H          -9.102820      -20.349815       -2.245867
 H          -8.461708      -21.240353       -4.366281
 H          -6.940759      -20.474812       -4.314659
