20
 generated by VMD
 C         -58.544079     -151.723404      -49.643711
 N         -59.303707     -152.207306      -48.901802
 H         -55.813557     -149.889267      -47.956543
 H         -57.939552     -151.176453      -50.400085
 C         -55.049885     -149.507523      -48.653149
 C         -54.240269     -150.461624      -49.411667
 C         -54.834621     -148.127914      -48.938202
 C         -54.189243     -150.298477      -50.956070
 C         -54.796051     -147.887161      -50.410988
 C         -53.896233     -148.819916      -51.192341
 H         -54.574814     -151.494858      -49.218876
 H         -53.266918     -150.312317      -49.043629
 H         -55.665989     -147.508636      -48.625729
 H         -53.911205     -147.808548      -48.418648
 H         -55.216034     -150.582840      -51.188545
 H         -53.591995     -151.001999      -51.520233
 H         -54.284901     -146.812027      -50.661430
 H         -55.699165     -147.714264      -50.941864
 H         -53.930729     -148.574020      -52.244179
 H         -52.803314     -148.575958      -50.894642
