20
 generated by VMD
 C         -13.829877      -28.741152       -7.033626
 N         -13.244714      -28.888166       -7.970069
 H         -11.919206      -30.788506       -4.836248
 H         -10.519670      -29.818214       -4.312846
 C         -10.856709      -30.818794       -4.460755
 C         -10.020262      -31.490461       -5.614882
 C         -10.913978      -31.607164       -3.197820
 C          -8.662980      -31.912626       -5.029871
 C          -9.619856      -32.136593       -2.703399
 C          -8.754184      -32.843273       -3.748999
 H          -9.904856      -30.819632       -6.509875
 H         -10.543485      -32.433605       -5.990722
 H         -11.357430      -30.906651       -2.423340
 H         -11.631699      -32.446804       -3.271625
 H          -8.020307      -31.095329       -4.667331
 H          -8.107889      -32.465855       -5.799519
 H          -9.803129      -32.793564       -1.864444
 H          -9.136154      -31.239189       -2.239973
 H          -7.742998      -32.991959       -3.391027
 H          -9.165938      -33.776386       -4.039786
