20
 generated by VMD
 C         -76.629959     -203.176651      -66.630310
 N         -77.421532     -203.702209      -65.940674
 H         -75.525116     -200.559814      -68.441536
 H         -76.114769     -202.773163      -67.445740
 C         -74.796692     -199.940109      -69.001411
 C         -74.826874     -198.449707      -68.749092
 C         -73.555214     -200.481277      -69.746597
 C         -73.430359     -197.841187      -68.837685
 C         -73.332794     -199.338440      -70.754143
 C         -72.728722     -198.029785      -70.173599
 H         -75.208694     -198.266830      -67.775536
 H         -75.516365     -197.966125      -69.388962
 H         -72.840141     -200.511185      -68.988121
 H         -73.769577     -201.396225      -70.326759
 H         -72.743378     -198.227173      -68.072304
 H         -73.706619     -196.800980      -68.702187
 H         -74.201942     -199.243927      -71.385170
 H         -72.663452     -199.604614      -71.575508
 H         -71.634628     -198.222412      -70.066765
 H         -72.838226     -197.161713      -70.977188
