20
 generated by VMD
 C         -32.352707      -92.947853      -25.912384
 N         -32.505585      -94.021843      -25.586224
 H         -33.699177      -94.895882      -28.797642
 H         -32.015446      -91.911140      -26.220535
 C         -34.142475      -93.927803      -28.925261
 C         -35.338730      -93.378357      -28.124226
 C         -33.707340      -93.114105      -30.135952
 C         -35.271935      -91.890358      -27.991615
 C         -33.574574      -91.670135      -29.667000
 C         -34.916504      -91.086411      -29.193138
 H         -35.342613      -93.939903      -27.184710
 H         -36.133026      -93.666229      -28.821453
 H         -32.686409      -93.502983      -30.401257
 H         -34.281521      -93.276108      -31.064724
 H         -34.491474      -91.605461      -27.279806
 H         -36.224422      -91.527573      -27.408686
 H         -33.109428      -90.947037      -30.367769
 H         -32.850796      -91.785370      -28.805653
 H         -34.976120      -89.992691      -29.023928
 H         -35.546291      -91.202232      -29.999315
