20
 generated by VMD
 C         -51.254745     -130.007431      -45.043472
 N         -51.731876     -129.320801      -45.811577
 H         -48.310940     -129.738541      -43.205875
 H         -51.085903     -130.701141      -44.268627
 C         -47.971699     -129.991440      -42.293793
 C         -47.914364     -131.274567      -41.670040
 C         -47.469505     -128.812317      -41.593380
 C         -46.603634     -131.627960      -41.058376
 C         -46.043499     -129.037354      -41.048386
 C         -46.010090     -130.391846      -40.233238
 H         -48.185062     -132.043762      -42.354237
 H         -48.733856     -131.261139      -40.910992
 H         -47.432281     -127.914795      -42.207619
 H         -48.080494     -128.485214      -40.721359
 H         -45.754753     -131.850266      -41.683006
 H         -46.573902     -132.567474      -40.409290
 H         -45.767868     -128.242645      -40.405884
 H         -45.370907     -129.076401      -41.924652
 H         -45.002495     -130.594803      -39.838703
 H         -46.729233     -130.232819      -39.429485
