20
 generated by VMD
 C         -65.774437     -177.670029      -56.860760
 N         -66.187149     -176.577744      -57.003250
 H         -64.730560     -175.647736      -59.336006
 H         -65.424469     -178.658066      -56.731483
 C         -64.647980     -174.628235      -59.398315
 C         -65.450768     -173.682144      -58.621094
 C         -63.517101     -174.239349      -60.282516
 C         -65.256393     -172.163986      -59.007267
 C         -63.167465     -172.853455      -60.234421
 C         -64.308815     -171.866104      -60.244560
 H         -64.980286     -173.852783      -57.689938
 H         -66.543144     -173.882248      -58.572212
 H         -62.704185     -174.850739      -59.850433
 H         -63.766777     -174.428055      -61.326149
 H         -64.693359     -171.606079      -58.237774
 H         -66.222794     -171.651779      -59.174515
 H         -62.493069     -172.604935      -61.137463
 H         -62.532455     -172.725479      -59.393528
 H         -63.963699     -170.815796      -60.359375
 H         -64.883392     -172.038055      -61.178028
