20
 generated by VMD
 C         -60.103970     -156.554489      -55.483700
 N         -60.873562     -155.865219      -56.104988
 H         -59.799049     -157.634338      -52.788506
 H         -59.386173     -157.283264      -55.016918
 C         -58.723396     -157.956451      -52.838081
 C         -57.658905     -156.961563      -52.625477
 C         -58.392559     -159.384872      -52.349045
 C         -57.352566     -156.748520      -51.155243
 C         -58.059242     -159.185562      -50.854885
 C         -57.086071     -158.139725      -50.558659
 H         -57.962173     -155.948135      -52.959400
 H         -56.823418     -157.180298      -53.385689
 H         -59.137943     -160.157318      -52.436981
 H         -57.545097     -159.688828      -53.041122
 H         -58.136833     -156.224731      -50.624714
 H         -56.412949     -156.247131      -51.201675
 H         -57.682625     -160.194122      -50.511238
 H         -59.045330     -158.900009      -50.291252
 H         -57.172855     -157.975250      -49.433838
 H         -56.119823     -158.424683      -50.954224
