20
 generated by VMD
 C         -37.971478     -109.749992      -36.425682
 N         -37.440388     -108.875038      -35.907238
 H         -40.330502     -112.589798      -36.698597
 H         -38.605873     -110.581383      -36.731522
 C         -41.269630     -112.642410      -36.145267
 C         -42.399029     -113.579819      -36.533493
 C         -41.716595     -111.485901      -35.300583
 C         -43.028198     -114.093163      -35.202255
 C         -42.302402     -112.033028      -33.980797
 C         -43.489738     -112.908142      -34.300148
 H         -42.016399     -114.491028      -37.097076
 H         -43.049820     -113.012192      -37.164356
 H         -40.911976     -110.717476      -35.166477
 H         -42.614784     -110.937233      -35.772785
 H         -42.361740     -114.749786      -34.710987
 H         -43.996380     -114.596939      -35.453518
 H         -42.594032     -111.213280      -33.340633
 H         -41.578812     -112.506531      -33.368816
 H         -43.918247     -113.227425      -33.276245
 H         -44.291443     -112.235687      -34.742142
