20
 generated by VMD
 C         -58.039852     -150.781158      -48.956390
 N         -58.137810     -151.860992      -48.657124
 H         -55.814308     -149.797806      -47.923470
 H         -57.848141     -149.769897      -49.150734
 C         -55.214573     -149.447968      -48.774097
 C         -54.352665     -150.385986      -49.462238
 C         -55.184994     -147.960632      -48.935230
 C         -54.171886     -150.021042      -50.976391
 C         -54.877239     -147.572083      -50.368763
 C         -53.869556     -148.407135      -51.056747
 H         -54.856796     -151.380234      -49.287575
 H         -53.379463     -150.459229      -49.010841
 H         -56.126202     -147.472839      -48.687004
 H         -54.355686     -147.709824      -48.294418
 H         -54.978237     -150.357681      -51.620945
 H         -53.269234     -150.370453      -51.393677
 H         -54.654575     -146.426666      -50.401249
 H         -55.764851     -147.481705      -50.863804
 H         -53.647118     -148.106461      -52.057140
 H         -52.902744     -148.318893      -50.503174
