20
 generated by VMD
 C         -58.718178     -160.853745      -56.758957
 N         -58.573082     -159.943939      -57.556267
 H         -58.984241     -164.133820      -54.876820
 H         -58.759388     -161.703186      -56.067440
 C         -59.679379     -163.451233      -54.334869
 C         -59.506721     -163.313660      -52.829895
 C         -61.105698     -163.362366      -54.896072
 C         -60.348343     -162.133209      -52.379814
 C         -62.027813     -162.262405      -54.352665
 C         -61.862114     -162.358093      -52.752483
 H         -58.437969     -163.098633      -52.582539
 H         -60.017376     -164.124161      -52.315479
 H         -61.107185     -163.461243      -55.959919
 H         -61.512218     -164.361923      -54.578709
 H         -60.065361     -161.116867      -52.898338
 H         -60.231380     -161.948639      -51.284122
 H         -63.124405     -162.274765      -54.636944
 H         -61.586987     -161.337250      -54.590977
 H         -62.436443     -161.479568      -52.384808
 H         -62.335365     -163.267487      -52.431519
