20
 generated by VMD
 C         -47.363388     -138.433456      -45.715984
 N         -47.074158     -138.236298      -46.780563
 H         -50.534046     -138.449570      -44.431435
 H         -47.712399     -138.804581      -44.739586
 C         -51.471615     -138.611908      -44.936382
 C         -51.646458     -138.912262      -46.406136
 C         -52.693233     -138.043472      -44.290718
 C         -52.777168     -139.939011      -46.593063
 C         -53.863003     -139.094986      -44.363117
 C         -54.124958     -139.544342      -45.993057
 H         -50.756897     -139.156296      -46.931782
 H         -52.027954     -138.060455      -47.041801
 H         -52.505440     -137.941833      -43.252831
 H         -52.962608     -137.119934      -44.737591
 H         -52.566814     -140.907288      -46.091881
 H         -52.781834     -140.200928      -47.701920
 H         -54.792114     -138.583923      -43.907127
 H         -53.692432     -139.928772      -43.762455
 H         -54.834442     -140.549118      -45.919121
 H         -54.614845     -138.663940      -46.408203
