20
 generated by VMD
 C         -79.996704     -206.834106      -74.035210
 N         -80.555054     -207.078735      -75.041786
 H         -76.998390     -206.787308      -72.861954
 H         -79.450569     -206.785309      -73.096527
 C         -76.643646     -207.432709      -71.972221
 C         -75.290749     -207.230255      -71.415749
 C         -77.348129     -208.691422      -71.438995
 C         -75.537186     -206.906433      -69.959831
 C         -77.679070     -208.507492      -69.922729
 C         -76.341393     -207.951981      -69.192337
 H         -74.894295     -206.356491      -71.990326
 H         -74.625359     -208.144852      -71.583252
 H         -78.287567     -208.713531      -71.925827
 H         -76.887520     -209.681442      -71.629059
 H         -75.934891     -205.914627      -69.966385
 H         -74.558403     -206.829071      -69.452873
 H         -78.128288     -209.289093      -69.381378
 H         -78.350502     -207.636536      -69.873405
 H         -76.435966     -207.782990      -68.026962
 H         -75.793404     -208.888016      -69.178108
