20
 generated by VMD
 C         -13.997280      -29.027601       -7.413710
 N         -13.358920      -29.014378       -8.332671
 H         -11.585279      -30.339682       -4.610235
 H         -10.117612      -30.003736       -3.923454
 C         -10.710957      -30.861616       -4.355496
 C          -9.907310      -31.454929       -5.503059
 C         -11.018920      -31.896994       -3.287302
 C          -8.660931      -32.128662       -4.900416
 C          -9.865015      -32.682758       -2.779352
 C          -9.141583      -33.318058       -3.974029
 H          -9.637021      -30.662130       -6.254803
 H         -10.527420      -32.225655       -5.939763
 H         -11.522819      -31.436237       -2.458518
 H         -11.772061      -32.593842       -3.697207
 H          -8.105102      -31.426184       -4.327792
 H          -7.947842      -32.544807       -5.583415
 H         -10.253385      -33.388218       -2.007104
 H          -9.111544      -32.034187       -2.287763
 H          -8.334496      -33.935951       -3.617975
 H          -9.701900      -34.060497       -4.564820
