20
 generated by VMD
 C         -49.748703     -141.513138      -45.391563
 N         -49.557240     -142.656372      -45.122650
 H         -51.724186     -138.948898      -45.953869
 H         -50.123753     -140.543976      -45.806217
 C         -52.225849     -139.721680      -46.436974
 C         -52.487953     -139.929489      -47.901077
 C         -53.153484     -140.394012      -45.486927
 C         -53.105694     -141.251556      -48.291309
 C         -53.564342     -141.839767      -45.886154
 C         -54.095230     -141.741867      -47.286549
 H         -51.490711     -139.671417      -48.274754
 H         -53.132401     -139.163208      -48.345833
 H         -52.800186     -140.502243      -44.451675
 H         -53.956238     -139.662735      -45.272430
 H         -52.372173     -142.140976      -48.485226
 H         -53.595211     -141.120590      -49.359592
 H         -54.422947     -142.142044      -45.371975
 H         -52.812859     -142.547195      -45.660351
 H         -54.628162     -142.747971      -47.548534
 H         -55.021809     -141.108444      -47.196198
