20
 generated by VMD
 C         -36.895351      -98.249771      -27.286268
 N         -37.816288      -98.308037      -26.577133
 H         -36.618999      -96.129639      -29.181520
 H         -35.956779      -98.244682      -27.837711
 C         -35.612686      -96.482948      -29.436979
 C         -35.403828      -97.180931      -30.723509
 C         -34.445759      -95.620796      -29.088917
 C         -35.060123      -96.177719      -31.870474
 C         -34.256279      -94.530724      -30.244432
 C         -33.831776      -95.255211      -31.463903
 H         -36.344357      -97.705658      -31.011530
 H         -34.563808      -97.877129      -30.540411
 H         -34.815582      -95.273125      -28.121475
 H         -33.499981      -96.085426      -28.925560
 H         -35.940575      -95.532181      -32.064613
 H         -34.993946      -96.749084      -32.744446
 H         -33.298485      -94.025581      -29.949310
 H         -35.103962      -93.882339      -30.392406
 H         -33.493557      -94.752914      -32.237263
 H         -32.959873      -95.965393      -31.264410
