20
 generated by VMD
 C         -41.508343     -120.018021      -34.016998
 N         -41.857914     -120.861832      -34.743137
 H         -43.559994     -119.073975      -37.044575
 H         -40.881805     -119.226143      -33.490612
 C         -43.928104     -118.673805      -38.026619
 C         -43.082851     -118.603615      -39.276279
 C         -45.273193     -117.973549      -38.028877
 C         -43.866863     -118.665581      -40.609772
 C         -46.087112     -118.332047      -39.224060
 C         -45.217575     -118.010078      -40.484695
 H         -42.206345     -119.327103      -39.280865
 H         -42.570545     -117.670746      -39.167297
 H         -45.780003     -118.319130      -37.021732
 H         -45.140915     -116.868202      -37.973423
 H         -44.017368     -119.693916      -40.903790
 H         -43.201130     -118.162209      -41.361309
 H         -46.922329     -117.623184      -39.302742
 H         -46.462925     -119.449089      -39.141418
 H         -45.729500     -118.180176      -41.514355
 H         -44.926132     -116.972054      -40.268799
