20
 generated by VMD
 C         -42.192513     -120.414673      -34.871510
 N         -42.463715     -121.269539      -34.173000
 H         -43.654491     -120.233269      -37.594646
 H         -42.025116     -119.588013      -35.637135
 C         -43.973995     -119.519424      -38.327477
 C         -43.129467     -119.024155      -39.449398
 C         -45.168152     -118.711952      -38.070938
 C         -43.840019     -118.907204      -40.773884
 C         -46.074535     -118.600014      -39.407715
 C         -45.172600     -118.035324      -40.556370
 H         -42.282417     -119.762093      -39.544064
 H         -42.795937     -118.095688      -39.153557
 H         -45.826252     -119.126678      -37.278038
 H         -44.809090     -117.765335      -37.855022
 H         -44.091091     -119.936913      -41.114956
 H         -43.312519     -118.293015      -41.557858
 H         -46.960056     -117.806633      -39.114208
 H         -46.538254     -119.568687      -39.622002
 H         -45.872322     -118.076576      -41.353619
 H         -44.960163     -117.014137      -40.368160
