20
 generated by VMD
 C         -68.804092     -180.218231      -62.334217
 N         -69.794838     -180.822571      -62.215778
 H         -66.925468     -180.571320      -59.131687
 H         -67.974655     -179.601868      -62.519623
 C         -66.393547     -179.786301      -59.722904
 C         -65.553749     -180.033813      -60.870422
 C         -66.181618     -178.482986      -58.924606
 C         -65.158020     -178.855911      -61.767323
 C         -66.258133     -177.343216      -59.881390
 C         -65.185944     -177.499619      -60.989353
 H         -65.916069     -180.879089      -61.474098
 H         -64.599113     -180.448105      -60.466682
 H         -67.004166     -178.351227      -58.248768
 H         -65.253120     -178.597946      -58.312759
 H         -65.638596     -178.757355      -62.738316
 H         -64.071861     -178.962830      -61.904465
 H         -66.018753     -176.418579      -59.319096
 H         -67.249817     -177.219315      -60.303528
 H         -65.580750     -176.646484      -61.632694
 H         -64.115303     -177.267120      -60.579098
