20
 generated by VMD
 C         -30.587679      -93.418602      -25.140265
 N         -29.512768      -93.852890      -25.432943
 H         -33.752220      -91.894455      -26.425961
 H         -31.555489      -93.088562      -25.018459
 C         -34.149727      -91.647018      -27.438032
 C         -35.439907      -92.256989      -27.802555
 C         -33.389820      -91.103584      -28.563442
 C         -36.261681      -91.414970      -28.760900
 C         -34.208965      -90.333679      -29.644083
 C         -35.488178      -91.094933      -30.057455
 H         -35.988743      -92.483902      -26.978245
 H         -35.057274      -93.147972      -28.250906
 H         -32.587822      -90.501160      -28.140062
 H         -33.046299      -91.987061      -29.097235
 H         -36.487656      -90.451630      -28.306843
 H         -37.240150      -91.922493      -29.070911
 H         -33.512993      -90.142593      -30.528492
 H         -34.662094      -89.412163      -29.315336
 H         -36.108597      -90.557442      -30.830690
 H         -34.981243      -91.947983      -30.551975
