20
 generated by VMD
 C         -60.195545     -156.222885      -54.669247
 N         -60.303322     -155.325668      -55.356403
 H         -59.731190     -157.306854      -51.503727
 H         -60.068813     -157.039337      -53.921154
 C         -58.844570     -157.266159      -52.091324
 C         -58.152390     -155.949310      -52.284447
 C         -57.952461     -158.446442      -52.003677
 C         -57.178280     -155.784042      -51.161877
 C         -56.976654     -158.306641      -50.918266
 C         -56.272408     -157.000900      -51.002472
 H         -58.853989     -155.011322      -52.343689
 H         -57.549114     -156.032150      -53.251812
 H         -58.446369     -159.342865      -51.688229
 H         -57.377193     -158.562469      -52.896835
 H         -57.582458     -155.648804      -50.153603
 H         -56.588696     -154.823257      -51.164154
 H         -56.151272     -159.037674      -51.158325
 H         -57.326355     -158.563736      -49.840252
 H         -55.658714     -156.895004      -50.179104
 H         -55.645645     -156.982635      -51.967243
