20
 generated by VMD
 C         -48.026894     -125.060120      -38.721340
 N         -47.166294     -125.804962      -38.698193
 H         -45.111866     -122.794037      -37.697006
 H         -48.846649     -124.320663      -38.732155
 C         -45.069332     -122.914200      -38.788136
 C         -44.223541     -123.896980      -39.424011
 C         -45.652664     -121.810585      -39.686222
 C         -44.439957     -124.262779      -40.801929
 C         -45.998039     -122.352303      -41.046902
 C         -44.843861     -123.068474      -41.687504
 H         -43.978054     -124.827370      -38.772285
 H         -43.223942     -123.384064      -39.550964
 H         -46.575645     -121.473045      -39.233711
 H         -44.913162     -120.931808      -39.681694
 H         -45.180702     -125.050148      -40.962498
 H         -43.574844     -124.828293      -41.257664
 H         -46.364235     -121.564186      -41.653786
 H         -46.870060     -122.963493      -41.080620
 H         -44.871685     -123.211166      -42.822193
 H         -44.027752     -122.330139      -41.513786
