20
 generated by VMD
 C         -11.738124      -41.926682       -6.814036
 N         -11.268209      -40.923309       -6.899898
 H         -14.346900      -40.800541       -8.393646
 H         -15.251745      -40.258259       -9.803745
 C         -15.116363      -41.156147       -9.146532
 C         -16.324875      -41.733757       -8.408956
 C         -14.432196      -42.203281      -10.034171
 C         -17.248259      -42.401970       -9.458285
 C         -15.454202      -42.699444      -11.078639
 C         -16.593597      -43.400021      -10.388374
 H         -16.805731      -40.932518       -7.845995
 H         -15.908773      -42.476460       -7.655209
 H         -13.578477      -41.803749      -10.542713
 H         -14.193222      -43.122993       -9.476048
 H         -17.619411      -41.556210      -10.080545
 H         -17.988670      -42.990891       -8.897706
 H         -14.983439      -43.296356      -11.866926
 H         -15.850155      -41.833294      -11.625670
 H         -17.279644      -43.829350      -11.102063
 H         -16.318527      -44.290459       -9.788250
