20
 generated by VMD
 C         -30.385311      -94.095825      -25.822121
 N         -30.228912      -93.595711      -24.768425
 H         -33.979271      -92.594879      -26.718893
 H         -30.665678      -94.597664      -26.802475
 C         -34.334957      -92.432617      -27.754108
 C         -35.785549      -92.580414      -28.060047
 C         -33.397259      -91.862404      -28.820004
 C         -36.332386      -91.337456      -28.763355
 C         -34.002846      -90.747887      -29.756348
 C         -35.532349      -90.960754      -30.017633
 H         -36.326191      -92.686661      -27.175802
 H         -35.880669      -93.528130      -28.541819
 H         -32.503044      -91.582939      -28.292603
 H         -33.180542      -92.703377      -29.414579
 H         -36.411346      -90.473465      -28.023630
 H         -37.361504      -91.585953      -29.117825
 H         -33.533134      -90.786919      -30.716564
 H         -33.681164      -89.763611      -29.311762
 H         -35.786640      -90.089897      -30.589308
 H         -35.537910      -91.662567      -30.857164
