20
 generated by VMD
 C         -59.088276     -168.339050      -55.146057
 N         -58.061646     -168.863480      -54.871220
 H         -62.612095     -169.210693      -55.760120
 H         -60.017200     -167.794601      -55.346416
 C         -62.530560     -168.223953      -56.306141
 C         -62.699539     -168.154953      -57.837036
 C         -62.804993     -166.900131      -55.623096
 C         -64.130363     -167.621597      -58.246021
 C         -64.201210     -166.273132      -56.017750
 C         -64.334702     -166.215805      -57.580780
 H         -62.562580     -169.116318      -58.244038
 H         -61.824757     -167.436157      -58.294262
 H         -62.916538     -166.920135      -54.518822
 H         -62.010166     -166.140121      -55.843788
 H         -64.803513     -168.357437      -57.827911
 H         -64.116165     -167.552521      -59.331196
 H         -64.273582     -165.217514      -55.791309
 H         -64.888397     -166.850281      -55.466564
 H         -65.329453     -165.746201      -57.765442
 H         -63.502953     -165.602036      -57.914970
