20
 generated by VMD
 C         -20.264103      -61.793835      -17.659548
 N         -19.612614      -61.524048      -16.738602
 H         -21.780203      -65.122787      -16.559519
 H         -20.804079      -62.275814      -18.433014
 C         -22.816271      -65.120544      -16.955746
 C         -23.145237      -64.353821      -18.226265
 C         -24.013910      -65.268394      -15.993001
 C         -24.490391      -64.725197      -18.976381
 C         -25.181675      -65.681099      -16.807400
 C         -25.649796      -64.768745      -17.921331
 H         -22.316051      -64.460220      -18.923183
 H         -23.344038      -63.237789      -18.047518
 H         -23.716074      -65.990219      -15.272935
 H         -24.193842      -64.238625      -15.634586
 H         -24.268736      -65.723267      -19.467478
 H         -24.658451      -64.041283      -19.814693
 H         -26.035824      -65.753670      -16.058229
 H         -25.155651      -66.756706      -17.117867
 H         -26.552448      -65.102646      -18.467405
 H         -25.991951      -63.715603      -17.583725
