20
 generated by VMD
 C         -28.290218      -81.292221      -27.659286
 N         -29.406307      -81.020126      -27.432512
 H         -29.217003      -82.867531      -24.710526
 H         -27.317459      -81.559097      -27.601057
 C         -29.988892      -83.531151      -24.300852
 C         -30.090734      -83.989624      -22.890429
 C         -30.613281      -84.442383      -25.253122
 C         -31.479853      -84.144127      -22.496357
 C         -32.024548      -84.818199      -24.851147
 C         -32.204952      -85.291420      -23.369989
 H         -29.532761      -83.229057      -22.159716
 H         -29.572561      -84.944778      -22.770685
 H         -30.654280      -84.037399      -26.283560
 H         -30.045290      -85.397659      -25.244661
 H         -32.214622      -83.243866      -22.546583
 H         -31.485844      -84.272125      -21.401878
 H         -32.246113      -85.688560      -25.496668
 H         -32.815346      -83.983604      -25.140787
 H         -33.241512      -85.378029      -22.937521
 H         -31.681925      -86.248550      -23.185740
