20
 generated by VMD
 C         -69.238258     -194.777740      -65.218033
 N         -68.477852     -193.938293      -64.866898
 H         -71.520142     -193.767868      -68.316307
 H         -69.969734     -195.333572      -65.753647
 C         -72.015610     -193.728119      -67.320946
 C         -71.645355     -192.500366      -66.538979
 C         -73.346855     -194.304138      -67.159035
 C         -72.624016     -192.160522      -65.398468
 C         -74.356033     -193.114395      -67.051689
 C         -74.053703     -192.144516      -65.977348
 H         -71.480133     -191.650177      -67.145294
 H         -70.720024     -192.699600      -66.010048
 H         -73.514519     -194.886948      -68.071243
 H         -73.410255     -194.861740      -66.302261
 H         -72.401306     -191.162079      -65.043015
 H         -72.619209     -192.747803      -64.489929
 H         -75.298622     -193.573700      -66.871201
 H         -74.483757     -192.539047      -67.981445
 H         -74.055115     -191.078873      -66.353966
 H         -74.870491     -192.170441      -65.164085
