20
 generated by VMD
 C         -38.941219     -112.367462      -35.792976
 N         -38.424809     -111.830559      -36.679089
 H         -41.134018     -115.122200      -35.112663
 H         -39.251476     -113.131050      -35.028305
 C         -41.485195     -114.227417      -35.495533
 C         -41.861725     -114.257942      -36.931759
 C         -42.341602     -113.270912      -34.733074
 C         -43.255985     -114.559837      -37.194511
 C         -43.844929     -113.519905      -35.003124
 C         -44.115383     -113.601585      -36.472157
 H         -41.171677     -114.989876      -37.288647
 H         -41.408287     -113.368355      -37.381546
 H         -42.166374     -113.207436      -33.625317
 H         -41.979530     -112.319298      -35.189121
 H         -43.539143     -115.514801      -36.795540
 H         -43.587353     -114.585350      -38.269581
 H         -44.531639     -112.856911      -34.541199
 H         -44.136585     -114.423233      -34.498100
 H         -45.174438     -113.697510      -36.741211
 H         -43.941219     -112.656662      -36.914936
