20
 generated by VMD
 C         -32.701714      -96.296005      -25.444534
 N         -32.993561      -95.908302      -24.403389
 H         -34.307713      -93.853760      -27.382978
 H         -32.482395      -96.776337      -26.452785
 C         -34.523304      -93.542763      -28.457571
 C         -35.991821      -93.623436      -28.915567
 C         -33.380299      -93.305191      -29.443403
 C         -36.124886      -92.421379      -29.994854
 C         -33.754730      -92.239197      -30.488157
 C         -35.167732      -92.293877      -31.087135
 H         -36.597816      -93.460327      -28.047581
 H         -36.203106      -94.643616      -29.325346
 H         -32.604889      -92.834702      -28.838793
 H         -33.009144      -94.232475      -29.871822
 H         -36.204529      -91.524734      -29.453447
 H         -37.143017      -92.569946      -30.440952
 H         -33.048203      -92.114037      -31.308521
 H         -33.518108      -91.175575      -30.046997
 H         -35.459946      -91.209221      -31.613798
 H         -35.220650      -93.098457      -31.850119
