20
 generated by VMD
 C         -47.882915     -135.014359      -46.224148
 N         -47.740154     -134.795563      -47.376480
 H         -51.097832     -134.560776      -45.509727
 H         -48.352974     -135.412842      -45.349800
 C         -51.098225     -135.425369      -44.765381
 C         -51.698196     -136.811340      -45.408798
 C         -51.175438     -135.336914      -43.332840
 C         -51.224804     -138.005081      -44.624863
 C         -50.816158     -136.667160      -42.548557
 C         -51.630192     -137.839691      -43.085308
 H         -51.317528     -136.912460      -46.396286
 H         -52.861580     -136.800873      -45.486820
 H         -50.657993     -134.408188      -43.010910
 H         -52.260342     -135.130875      -43.127251
 H         -50.143463     -138.226440      -44.740410
 H         -51.683586     -138.970123      -44.805981
 H         -51.163769     -136.487061      -41.551544
 H         -49.727314     -136.911102      -42.602863
 H         -51.317215     -138.775208      -42.573196
 H         -52.703800     -137.499451      -43.091885
