20
 generated by VMD
 C         -19.822979      -62.020557      -17.719339
 N         -19.857998      -61.841305      -16.590803
 H         -21.853949      -64.664330      -16.640728
 H         -19.922619      -62.075821      -18.774078
 C         -22.902399      -64.857574      -16.960020
 C         -23.400795      -64.370453      -18.279835
 C         -24.054081      -65.272911      -16.103382
 C         -24.509014      -64.961609      -19.066132
 C         -25.277508      -65.847961      -16.857738
 C         -25.724041      -65.069016      -18.084227
 H         -22.457750      -64.297691      -18.950308
 H         -23.621897      -63.244961      -18.082933
 H         -23.755705      -66.069061      -15.376045
 H         -24.536283      -64.517570      -15.505225
 H         -24.320871      -65.914413      -19.546629
 H         -24.733515      -64.160606      -19.818581
 H         -26.132021      -65.985497      -16.224258
 H         -25.092123      -66.896317      -17.086666
 H         -26.516380      -65.673759      -18.534113
 H         -26.148638      -64.132599      -17.788927
