20
 generated by VMD
 C         -11.663276      -41.435345       -6.724672
 N         -11.309185      -42.394611       -6.260053
 H         -14.616570      -42.266312       -8.281321
 H         -15.164723      -41.275421       -9.645054
 C         -15.278766      -42.304798       -9.229199
 C         -16.745949      -42.568535       -8.878212
 C         -14.762513      -43.376194      -10.155010
 C         -17.625729      -42.567463      -10.140980
 C         -15.566605      -43.361626      -11.471140
 C         -17.087454      -43.412868      -11.242410
 H         -17.098160      -41.737888       -8.227584
 H         -16.926582      -43.537418       -8.347962
 H         -13.704921      -43.071686      -10.423654
 H         -14.872842      -44.374531       -9.685163
 H         -17.617897      -41.528347      -10.540452
 H         -18.591185      -42.874653       -9.731659
 H         -15.251494      -44.060520      -12.177529
 H         -15.351056      -42.358913      -11.988029
 H         -17.624397      -43.124626      -12.142608
 H         -17.363089      -44.458485      -11.161216
