20
 generated by VMD
 C         -28.482382      -86.903625      -26.976782
 N         -27.540087      -87.090431      -26.294184
 H         -31.189743      -88.288383      -25.102142
 H         -29.323658      -86.592476      -27.645979
 C         -32.109837      -88.144302      -25.653494
 C         -33.207962      -88.183586      -24.728346
 C         -32.210262      -88.138771      -27.142471
 C         -34.531757      -87.739220      -25.265545
 C         -33.523056      -87.385612      -27.614975
 C         -34.696381      -87.939537      -26.744265
 H         -32.838043      -87.666588      -23.884087
 H         -33.418362      -89.105827      -24.172461
 H         -31.343086      -87.623978      -27.537872
 H         -32.170139      -89.208176      -27.505102
 H         -34.600487      -86.606499      -25.117071
 H         -35.344208      -88.277840      -24.770506
 H         -33.607353      -87.547203      -28.744688
 H         -33.552048      -86.361870      -27.322906
 H         -35.582584      -87.508804      -27.184647
 H         -34.747486      -88.999680      -27.026546
