20
 generated by VMD
 C         -38.690289     -113.537735      -35.981083
 N         -37.602673     -113.901672      -35.978565
 H         -41.526031     -115.326286      -35.604839
 H         -39.590897     -112.997223      -36.174721
 C         -42.274040     -114.587402      -35.961971
 C         -42.360210     -114.366379      -37.463287
 C         -43.426888     -114.208649      -35.084068
 C         -43.453365     -115.308640      -37.903225
 C         -44.693760     -114.926132      -35.668644
 C         -44.767494     -114.871613      -37.273499
 H         -41.366364     -114.719269      -37.712051
 H         -42.376781     -113.358017      -37.752213
 H         -43.386990     -114.517220      -34.063816
 H         -43.588459     -113.139442      -34.984776
 H         -43.222939     -116.310875      -37.559879
 H         -43.418072     -115.266289      -39.009365
 H         -45.525772     -114.568840      -35.087486
 H         -44.864220     -115.970467      -35.444366
 H         -45.480076     -115.654625      -37.613628
 H         -45.196743     -113.838264      -37.452641
