20
 generated by VMD
 C         -12.846962      -28.741816       -5.985832
 N         -13.078788      -28.715626       -7.077053
 H         -12.112515      -31.254522       -5.025239
 H         -11.154086      -29.904173       -5.058732
 C         -11.122443      -30.962877       -4.734521
 C         -10.111292      -31.647791       -5.617693
 C         -10.852320      -30.959698       -3.267141
 C          -8.627031      -31.479700       -5.219633
 C          -9.449625      -30.979837       -2.831749
 C          -8.488134      -31.801575       -3.682011
 H         -10.398463      -31.336245       -6.720014
 H         -10.264275      -32.723465       -5.557340
 H         -11.397749      -30.181288       -2.710013
 H         -11.330512      -31.932934       -2.907449
 H          -8.352233      -30.414827       -5.366132
 H          -7.870673      -32.084656       -5.796644
 H          -9.389314      -31.360918       -1.804218
 H          -9.096599      -29.934042       -2.806933
 H          -7.498196      -31.704723       -3.319302
 H          -8.587501      -32.887390       -3.540996
