20
 generated by VMD
 C         -78.713425     -209.063080      -77.132744
 N         -79.631531     -208.566742      -76.628372
 H         -78.437164     -209.087402      -73.174004
 H         -77.787079     -209.375275      -77.460686
 C         -78.260941     -209.824112      -72.350418
 C         -76.938782     -209.756378      -71.443054
 C         -79.186981     -211.067245      -72.307480
 C         -77.123634     -210.489029      -70.106186
 C         -79.441017     -211.479340      -70.922646
 C         -78.102196     -211.739044      -70.217400
 H         -76.735832     -208.671875      -71.282379
 H         -76.124611     -210.343964      -71.920525
 H         -80.049110     -210.978683      -72.927551
 H         -78.618576     -211.936981      -72.679947
 H         -77.559044     -209.707947      -69.415543
 H         -76.149109     -210.906815      -69.751396
 H         -80.093338     -212.370407      -70.822578
 H         -80.004929     -210.607788      -70.421745
 H         -78.380714     -211.981461      -69.210793
 H         -77.654594     -212.636017      -70.613869
