20
 generated by VMD
 C         -60.648823     -153.316620      -52.236832
 N         -60.538845     -152.674896      -51.221809
 H         -57.430660     -153.884018      -50.206585
 H         -60.765663     -153.965012      -53.087135
 C         -56.561058     -153.260452      -50.354599
 C         -55.322792     -153.544968      -49.488892
 C         -56.664894     -152.023804      -51.083630
 C         -54.039516     -153.042389      -50.009701
 C         -55.290680     -151.508545      -51.608051
 C         -54.163475     -151.557159      -50.601818
 H         -55.130692     -154.687668      -49.458641
 H         -55.476761     -153.180450      -48.442894
 H         -57.344379     -152.120865      -51.901939
 H         -57.191593     -151.310150      -50.407616
 H         -53.506489     -153.696716      -50.721073
 H         -53.401051     -152.991272      -49.165436
 H         -55.310177     -150.552078      -52.127876
 H         -54.972366     -152.312164      -52.451557
 H         -53.318756     -151.204407      -51.123611
 H         -54.384804     -150.720764      -49.858036
