20
 generated by VMD
 C         -23.092518      -53.491436      -13.616515
 N         -23.492273      -52.746269      -14.367094
 H         -20.695396      -55.030956      -14.620145
 H         -22.758226      -54.125362      -12.831951
 C         -19.678076      -54.914452      -14.016595
 C         -19.189730      -53.542866      -13.705680
 C         -18.650278      -55.942924      -14.272131
 C         -17.830484      -53.522499      -13.085961
 C         -17.420837      -55.972252      -13.382443
 C         -16.756567      -54.642731      -13.315895
 H         -19.827116      -53.025642      -12.967494
 H         -19.170656      -53.006760      -14.665225
 H         -19.217953      -56.918941      -14.181900
 H         -18.408989      -55.798939      -15.334048
 H         -18.019632      -53.507866      -12.004924
 H         -17.342505      -52.535992      -13.236998
 H         -16.650286      -56.735455      -13.687667
 H         -17.756802      -56.247509      -12.404329
 H         -16.006731      -54.636475      -12.514082
 H         -16.080168      -54.440872      -14.185659
