20
 generated by VMD
 C         -69.153709     -180.408752      -60.745220
 N         -69.580009     -181.404373      -60.381760
 H         -67.345650     -177.801865      -59.505955
 H         -68.653564     -179.534592      -61.212814
 C         -66.360748     -177.469589      -59.857719
 C         -65.859436     -177.534134      -61.276226
 C         -65.370842     -177.232346      -58.825882
 C         -64.991913     -176.393967      -61.708340
 C         -64.379585     -176.085785      -59.221901
 C         -63.740589     -176.182495      -60.714340
 H         -66.744133     -177.745087      -61.898804
 H         -65.288292     -178.424118      -61.302410
 H         -65.838875     -176.869507      -57.840347
 H         -64.782829     -178.062408      -58.582855
 H         -65.620079     -175.448090      -61.581142
 H         -64.490555     -176.473602      -62.687786
 H         -63.562653     -175.818359      -58.554939
 H         -65.018494     -175.154022      -59.248039
 H         -63.120144     -175.197006      -60.813553
 H         -62.933460     -176.923584      -60.678829
