20
 generated by VMD
 C         -58.071175     -166.484726      -56.206997
 N         -58.216995     -167.272308      -55.335228
 H         -60.590752     -165.449173      -54.962139
 H         -57.839935     -165.914124      -57.079948
 C         -61.530621     -165.589279      -55.462349
 C         -61.818054     -166.885590      -56.294025
 C         -62.458984     -164.508377      -55.558052
 C         -63.293201     -167.206161      -56.358849
 C         -63.910156     -164.949448      -55.522747
 C         -64.187202     -166.030899      -56.532127
 H         -61.185146     -167.566116      -55.811741
 H         -61.434395     -166.566574      -57.353058
 H         -62.225349     -163.694382      -54.830051
 H         -62.371178     -163.990768      -56.538494
 H         -63.693611     -167.928604      -55.612598
 H         -63.475792     -167.817871      -57.331524
 H         -64.522820     -164.099670      -55.795433
 H         -64.303032     -165.334717      -54.363495
 H         -65.176041     -166.390335      -56.349072
 H         -64.129265     -165.646927      -57.524277
