20
 generated by VMD
 C         -39.526241     -107.667404      -37.736332
 N         -39.051220     -106.633003      -37.872852
 H         -39.499367     -108.412514      -34.910023
 H         -39.984818     -108.643723      -37.901649
 C         -39.973022     -109.110680      -34.263405
 C         -39.178951     -110.241257      -33.835361
 C         -41.421261     -109.128288      -34.156906
 C         -39.760307     -110.972778      -32.615505
 C         -41.947010     -109.835075      -32.933113
 C         -41.269287     -111.256783      -32.727470
 H         -38.213013     -109.738503      -33.736221
 H         -38.891884     -110.822197      -34.694584
 H         -41.654980     -108.078514      -34.074379
 H         -41.935734     -109.472931      -35.116081
 H         -39.534706     -110.435783      -31.652206
 H         -39.146049     -111.989166      -32.603916
 H         -43.042633     -109.882843      -33.157917
 H         -41.686268     -109.273605      -32.082058
 H         -41.670273     -111.797470      -31.843615
 H         -41.461052     -111.916550      -33.552402
