20
 generated by VMD
 C         -68.120003     -179.525925      -58.726501
 N         -67.920990     -179.841080      -57.642296
 H         -66.540756     -176.461594      -59.312302
 H         -68.214363     -179.217743      -59.782131
 C         -65.715210     -175.830170      -59.869900
 C         -66.047478     -174.820023      -60.883701
 C         -64.289185     -176.265320      -59.504543
 C         -65.156487     -173.684860      -60.682842
 C         -63.328728     -175.048096      -59.504944
 C         -63.628098     -174.052704      -60.651779
 H         -67.190804     -174.799500      -60.799671
 H         -65.752052     -175.140732      -61.872028
 H         -64.251862     -176.644424      -58.469666
 H         -63.876217     -176.983795      -60.148727
 H         -65.437897     -173.175949      -59.639698
 H         -65.440315     -172.919525      -61.498363
 H         -62.303986     -175.438522      -59.627728
 H         -63.345154     -174.602859      -58.462231
 H         -62.855179     -173.252258      -60.671627
 H         -63.526470     -174.579208      -61.569946
