20
 generated by VMD
 C         -12.647939      -27.507195       -4.619866
 N         -13.646976      -27.977230       -4.581459
 H         -10.580275      -29.874613       -2.495115
 H         -10.723869      -28.346485       -3.453580
 C          -9.984065      -29.192896       -3.131950
 C          -9.506864      -29.904327       -4.391647
 C          -8.758391      -28.633919       -2.314087
 C          -8.471257      -29.151077       -5.263634
 C          -7.915942      -27.727470       -3.199716
 C          -7.363739      -28.481831       -4.435582
 H         -10.348907      -30.187860       -5.004380
 H          -9.131139      -30.995266       -4.167255
 H          -9.161934      -28.064014       -1.497033
 H          -8.209989      -29.451511       -1.917160
 H          -9.020007      -28.410082       -5.935346
 H          -8.055714      -29.870176       -6.028228
 H          -7.050413      -27.340866       -2.711644
 H          -8.412457      -26.780479       -3.559250
 H          -6.828429      -27.706209       -5.018225
 H          -6.650167      -29.155222       -4.030443
