20
 generated by VMD
 C         -61.619324     -155.968750      -53.874615
 N         -61.416725     -154.943268      -54.464611
 H         -58.641270     -155.280212      -51.883148
 H         -61.811550     -156.967300      -53.487507
 C         -57.638985     -155.165176      -51.509724
 C         -57.445385     -154.305756      -50.300579
 C         -56.481792     -155.319885      -52.442257
 C         -56.190891     -154.988556      -49.613373
 C         -55.272087     -155.799942      -51.775761
 C         -54.956505     -155.041840      -50.577873
 H         -58.200382     -154.495697      -49.542706
 H         -57.451000     -153.327896      -50.566341
 H         -56.732693     -156.119797      -53.232986
 H         -56.594395     -154.317017      -52.894112
 H         -56.432564     -155.884628      -49.151478
 H         -55.994316     -154.329300      -48.751698
 H         -54.394157     -155.678864      -52.458710
 H         -55.320705     -156.845154      -51.639824
 H         -54.060745     -155.470200      -49.939682
 H         -54.675056     -154.041763      -50.772461
