20
 generated by VMD
 C         -40.320431     -100.181992      -30.053461
 N         -41.233932     -100.520767      -30.726868
 H         -37.396481     -101.522079      -30.568634
 H         -39.484119     -100.124878      -29.433308
 C         -36.430550     -100.987770      -30.900450
 C         -36.321312     -100.524742      -32.257179
 C         -35.314270     -100.878075      -29.982168
 C         -35.704319      -99.148514      -32.382027
 C         -34.743286      -99.521385      -30.115194
 C         -34.401169      -99.191376      -31.526627
 H         -37.341747     -100.569496      -32.720276
 H         -35.743938     -101.265434      -32.768326
 H         -35.577702     -101.035194      -28.897087
 H         -34.574570     -101.600754      -30.194246
 H         -36.417633      -98.353645      -32.054630
 H         -35.377895      -98.798485      -33.410587
 H         -33.808281      -99.372200      -29.567364
 H         -35.431648      -98.712601      -29.712828
 H         -33.947952      -98.219604      -31.486275
 H         -33.727001      -99.941628      -31.857668
