20
 generated by VMD
 C         -42.992035     -120.766373      -35.370026
 N         -42.654507     -120.976547      -34.257008
 H         -44.388866     -121.237251      -38.797306
 H         -43.493385     -120.571136      -36.287228
 C         -44.126469     -120.155190      -38.685837
 C         -43.076862     -119.564774      -39.575672
 C         -45.171677     -119.270790      -38.083405
 C         -43.719364     -118.874672      -40.745270
 C         -45.968250     -118.763809      -39.291229
 C         -45.051395     -118.122093      -40.340389
 H         -42.444504     -120.462585      -39.874508
 H         -42.401173     -118.866287      -39.070358
 H         -45.894520     -119.757912      -37.367142
 H         -44.827850     -118.370865      -37.567848
 H         -44.014500     -119.602058      -41.534111
 H         -43.078087     -118.235306      -41.335934
 H         -46.833069     -118.006058      -39.015621
 H         -46.513954     -119.498848      -39.837738
 H         -45.636757     -117.868690      -41.279964
 H         -44.800835     -117.069786      -39.949093
