20
 generated by VMD
 C         -13.775881      -28.735327       -6.961277
 N         -13.233229      -28.876184       -7.926739
 H         -11.980353      -30.684807       -4.974857
 H         -10.578786      -29.824284       -4.423186
 C         -10.924447      -30.843149       -4.595907
 C         -10.028802      -31.490280       -5.613108
 C         -10.914396      -31.527245       -3.154344
 C          -8.659106      -31.901400       -5.006223
 C          -9.563552      -32.134186       -2.652168
 C          -8.726585      -32.746853       -3.750455
 H          -9.915788      -30.742897       -6.485608
 H         -10.534821      -32.394535       -6.011662
 H         -11.316863      -30.851032       -2.342198
 H         -11.635115      -32.372387       -3.237261
 H          -8.209963      -30.893005       -4.860776
 H          -8.024070      -32.395111       -5.777807
 H          -9.725514      -32.817196       -1.856811
 H          -8.877373      -31.309849       -2.281520
 H          -7.765033      -33.022076       -3.331949
 H          -9.177944      -33.712685       -3.985759
