20
 generated by VMD
 C         -57.001507     -163.405243      -56.618336
 N         -57.219810     -162.458557      -57.318760
 H         -59.736374     -165.201065      -54.815781
 H         -56.935383     -164.294876      -55.950920
 C         -60.821175     -164.903656      -54.725227
 C         -61.430176     -164.921249      -53.390255
 C         -61.534752     -164.469772      -55.889706
 C         -62.721333     -164.056808      -53.234745
 C         -62.904259     -163.765961      -55.640587
 C         -63.581242     -164.244781      -54.405838
 H         -60.662834     -164.419647      -52.739567
 H         -61.760017     -165.963333      -53.238285
 H         -61.003014     -163.696030      -56.511890
 H         -61.629349     -165.357788      -56.572586
 H         -62.466358     -163.042480      -53.032848
 H         -63.189640     -164.270035      -52.250576
 H         -63.556702     -163.937164      -56.504940
 H         -62.619545     -162.733521      -55.410114
 H         -64.582741     -163.808075      -54.376122
 H         -63.762344     -165.361374      -54.596767
