20
 generated by VMD
 C         -50.361874     -127.713684      -40.749775
 N         -51.149586     -128.211960      -41.457314
 H         -47.077892     -127.786339      -41.674232
 H         -49.912899     -127.289124      -39.850277
 C         -46.818855     -127.003136      -41.016720
 C         -45.545227     -127.415436      -40.090633
 C         -46.791332     -125.530205      -41.278099
 C         -44.274345     -126.930466      -40.707047
 C         -45.432953     -125.029678      -41.882061
 C         -44.314899     -125.439087      -40.998653
 H         -45.526234     -128.525177      -39.900566
 H         -45.807968     -126.914040      -39.230953
 H         -47.691036     -125.144669      -41.807922
 H         -47.076683     -124.987289      -40.291248
 H         -43.832233     -127.421684      -41.587830
 H         -43.477802     -127.057137      -39.928410
 H         -45.503002     -123.922424      -41.846458
 H         -45.587952     -125.325905      -42.927639
 H         -43.398445     -125.026443      -41.371296
 H         -44.546047     -124.924377      -40.067017
