20
 generated by VMD
 C         -15.667935      -47.642593       -6.446853
 N         -15.732827      -46.589180       -6.109324
 H         -16.488924      -47.625244      -10.099779
 H         -15.323924      -47.138538      -11.332195
 C         -16.328608      -46.994629      -10.980957
 C         -16.423531      -45.462975      -10.661862
 C         -17.219584      -47.436302      -12.130691
 C         -16.152008      -44.725101      -11.969909
 C         -16.917034      -46.726715      -13.400847
 C         -16.994181      -45.213814      -13.144417
 H         -15.591328      -45.256153       -9.957141
 H         -17.325718      -45.083889      -10.085716
 H         -17.048857      -48.551147      -12.303670
 H         -18.272852      -47.355648      -11.795947
 H         -15.098019      -44.832893      -12.300275
 H         -16.238014      -43.630913      -11.793481
 H         -17.666922      -47.055428      -14.172477
 H         -15.932516      -46.872780      -13.676830
 H         -16.575678      -44.692894      -13.993519
 H         -18.016632      -44.968212      -12.942029
