20
 generated by VMD
 C         -67.802017     -179.411713      -58.667355
 N         -68.265160     -180.149323      -57.913445
 H         -66.593132     -176.584503      -59.414940
 H         -67.365097     -178.636261      -59.319004
 C         -65.811752     -175.962631      -59.985825
 C         -66.127647     -174.937866      -60.962040
 C         -64.495003     -176.484604      -59.591442
 C         -65.043549     -173.870544      -60.989746
 C         -63.511906     -175.235168      -59.305336
 C         -63.657726     -174.268906      -60.549297
 H         -67.184586     -174.709259      -60.629631
 H         -66.132889     -175.449478      -61.948048
 H         -64.526360     -177.093048      -58.626747
 H         -63.983414     -177.092896      -60.307323
 H         -65.335571     -173.120056      -60.332047
 H         -65.031845     -173.463150      -61.985603
 H         -62.518108     -175.583496      -59.276199
 H         -63.726665     -174.820831      -58.308113
 H         -62.892380     -173.492523      -60.360653
 H         -63.189655     -174.792648      -61.355385
