20
 generated by VMD
 C         -60.706352     -153.551071      -51.647243
 N         -61.434769     -154.412537      -51.962517
 H         -57.494579     -153.945007      -52.214027
 H         -60.005482     -152.811401      -51.342415
 C         -56.767639     -153.448746      -51.581482
 C         -56.664925     -153.833908      -50.138123
 C         -55.888077     -152.405151      -52.208145
 C         -55.191422     -153.979782      -49.698036
 C         -54.534695     -152.461945      -51.577198
 C         -54.344410     -152.829285      -50.118443
 H         -57.351406     -154.668594      -49.837925
 H         -57.053001     -152.921432      -49.564034
 H         -55.843418     -152.554169      -53.349838
 H         -56.360218     -151.419205      -52.125065
 H         -54.719601     -154.949402      -50.067265
 H         -54.980598     -154.138275      -48.603432
 H         -53.986794     -151.505203      -51.727654
 H         -54.207008     -153.213150      -52.327477
 H         -53.340446     -153.138443      -49.864849
 H         -54.432659     -151.841690      -49.468060
