20
 generated by VMD
 C         -19.550791      -57.999390      -17.133789
 N         -19.241665      -58.557892      -18.078129
 H         -22.671936      -59.722057      -16.822437
 H         -19.611509      -57.589668      -16.202810
 C         -22.917788      -60.578659      -16.314117
 C         -23.932049      -61.545761      -16.745842
 C         -22.027773      -61.009090      -15.188467
 C         -23.425482      -62.952496      -16.745087
 C         -21.969490      -62.557110      -14.757843
 C         -23.063437      -63.450298      -15.361545
 H         -24.365820      -61.206982      -17.729321
 H         -24.796751      -61.510700      -15.902023
 H         -21.042789      -60.443844      -15.210053
 H         -22.351999      -60.543102      -14.239725
 H         -22.467703      -62.881786      -17.267008
 H         -24.181801      -63.657719      -17.201744
 H         -22.012520      -62.630684      -13.606534
 H         -20.936371      -62.976765      -14.827007
 H         -22.638475      -64.440964      -15.446940
 H         -23.950851      -63.514465      -14.765481
