20
 generated by VMD
 C         -77.959518     -209.992035      -76.414001
 N         -77.373856     -210.942291      -76.153488
 H         -80.370842     -212.773148      -74.979301
 H         -78.614159     -209.096970      -76.695816
 C         -80.154968     -213.084625      -73.960785
 C         -78.691826     -213.072891      -73.523438
 C         -81.300865     -213.877167      -73.221771
 C         -78.599472     -212.785202      -72.067413
 C         -80.982613     -213.754898      -71.679581
 C         -79.499336     -213.917358      -71.322678
 H         -77.942596     -212.515701      -74.111427
 H         -78.373154     -214.092484      -73.713074
 H         -82.374771     -213.530991      -73.399231
 H         -81.268776     -214.852112      -73.611923
 H         -79.057472     -211.794266      -71.825653
 H         -77.492676     -212.919830      -71.835266
 H         -81.594925     -214.565079      -71.167778
 H         -81.379425     -212.894623      -71.312698
 H         -79.358551     -213.811447      -70.314453
 H         -79.240341     -214.896439      -71.722687
