20
 generated by VMD
 C         -47.312298     -138.898682      -45.702290
 N         -46.902653     -138.496658      -46.651939
 H         -50.778034     -138.222412      -44.724976
 H         -47.781380     -139.025681      -44.741234
 C         -51.657494     -138.702774      -45.128662
 C         -51.808716     -139.145508      -46.518215
 C         -52.842396     -138.425751      -44.323391
 C         -52.882126     -140.117172      -46.710526
 C         -54.054771     -139.345245      -44.632149
 C         -54.287449     -139.601654      -46.129242
 H         -50.859238     -139.617065      -46.936874
 H         -51.855350     -138.195633      -47.120213
 H         -52.558907     -138.487808      -43.277779
 H         -53.119991     -137.376419      -44.522495
 H         -52.621265     -141.122574      -46.249146
 H         -53.080250     -140.422287      -47.746731
 H         -55.085072     -139.113007      -44.226200
 H         -53.852848     -140.307770      -44.080334
 H         -55.060627     -140.451126      -46.227589
 H         -54.556995     -138.671539      -46.603382
