20
 generated by VMD
 C         -61.024490     -172.273026      -55.185200
 N         -60.239571     -173.051559      -54.988693
 H         -62.259453     -170.718567      -57.368938
 H         -61.623108     -171.464783      -55.487518
 C         -63.033318     -169.912201      -57.338753
 C         -62.622112     -168.432510      -57.514595
 C         -64.566025     -170.149139      -57.337727
 C         -63.369911     -167.836624      -58.820015
 C         -65.165543     -169.460632      -58.597672
 C         -64.865150     -168.023590      -58.738003
 H         -61.612816     -168.371964      -57.563847
 H         -63.024822     -167.844131      -56.548954
 H         -64.880737     -171.168137      -57.346306
 H         -65.054108     -169.587463      -56.520306
 H         -62.864162     -168.390701      -59.730412
 H         -63.121300     -166.755356      -58.901890
 H         -66.229004     -169.546127      -58.530727
 H         -64.714417     -169.986542      -59.376667
 H         -65.237740     -167.663666      -59.688736
 H         -65.472908     -167.446259      -57.967197
