20
 generated by VMD
 C         -16.780699      -47.802013       -7.243396
 N         -16.382257      -46.754059       -7.181284
 H         -16.873564      -48.457806      -10.182287
 H         -15.485604      -48.475639      -11.296996
 C         -16.422525      -47.936409      -11.066752
 C         -16.239292      -46.492096      -10.660828
 C         -17.445379      -47.881924      -12.225523
 C         -15.754545      -45.470531      -11.797476
 C         -17.094870      -46.814133      -13.320457
 C         -16.827450      -45.406624      -12.866589
 H         -15.564567      -46.403973       -9.783195
 H         -17.238659      -46.141331      -10.437990
 H         -17.514254      -48.875397      -12.722182
 H         -18.464161      -47.574375      -11.880363
 H         -14.790055      -45.797543      -12.196905
 H         -15.586339      -44.493782      -11.338790
 H         -17.914082      -46.881851      -13.959160
 H         -16.264238      -47.116093      -13.961078
 H         -16.557678      -44.718685      -13.667452
 H         -17.699400      -44.946953      -12.472443
