20
 generated by VMD
 C         -20.195093      -52.223053       -9.821809
 N         -21.077770      -51.470074      -10.188810
 H         -18.260984      -49.328075      -10.529195
 H         -19.468882      -52.808685       -9.797454
 C         -17.558245      -49.339752      -11.389462
 C         -16.944218      -50.623386      -11.743927
 C         -17.219248      -48.170601      -12.290368
 C         -16.807505      -50.807198      -13.283516
 C         -17.016031      -48.365345      -13.785979
 C         -16.206717      -49.645111      -14.036527
 H         -17.422749      -51.464264      -11.217779
 H         -15.935561      -50.591946      -11.329921
 H         -18.057827      -47.413528      -12.281194
 H         -16.298706      -47.693527      -11.890862
 H         -17.820601      -50.914597      -13.601783
 H         -16.392515      -51.742054      -13.684427
 H         -16.594971      -47.470234      -14.224943
 H         -18.023834      -48.349983      -14.309628
 H         -16.179775      -49.860123      -15.090624
 H         -15.221743      -49.466770      -13.692236
