20
 generated by VMD
 C         -75.447540     -201.955719      -66.209312
 N         -76.267380     -202.597000      -65.656555
 H         -75.849907     -200.164963      -69.115814
 H         -74.796959     -201.385803      -66.845673
 C         -75.007507     -199.432449      -69.121399
 C         -74.912865     -198.165573      -68.325546
 C         -73.969475     -199.794907      -70.137032
 C         -73.411285     -197.731781      -68.272148
 C         -73.210350     -198.715714      -70.757462
 C         -72.705498     -197.781158      -69.605202
 H         -75.379288     -198.285080      -67.388351
 H         -75.489075     -197.372055      -68.729561
 H         -73.217377     -200.485245      -69.686882
 H         -74.638649     -200.227036      -70.839050
 H         -72.925819     -198.415451      -67.584785
 H         -73.290932     -196.795990      -67.771301
 H         -73.752426     -198.235947      -71.557121
 H         -72.310440     -199.027222      -71.193596
 H         -71.543472     -198.002441      -69.397728
 H         -72.706177     -196.786346      -69.979523
