20
 generated by VMD
 C         -31.811121      -75.958435      -24.106297
 N         -31.182995      -76.352608      -25.007185
 H         -29.651802      -77.801666      -22.419733
 H         -32.271034      -75.519608      -23.188787
 C         -28.579782      -77.904091      -22.148735
 C         -27.655888      -78.274315      -23.309185
 C         -28.198078      -78.380447      -20.723322
 C         -26.212231      -77.788391      -22.886263
 C         -26.822041      -77.739799      -20.413786
 C         -25.823015      -78.188896      -21.491072
 H         -27.966606      -77.710854      -24.137510
 H         -27.656080      -79.305511      -23.359932
 H         -29.058754      -78.039474      -19.998590
 H         -28.118046      -79.454056      -20.617222
 H         -26.311001      -76.684456      -22.746428
 H         -25.389223      -78.046295      -23.631239
 H         -26.464764      -77.921799      -19.416815
 H         -26.972954      -76.593826      -20.447989
 H         -24.823765      -77.752319      -21.210869
 H         -25.600809      -79.212143      -21.329033
