20
 generated by VMD
 C         -21.852612      -66.962273      -16.783615
 N         -21.021782      -66.908974      -15.962853
 H         -24.074224      -64.809502      -18.193146
 H         -22.741585      -67.100990      -17.316639
 C         -24.552143      -65.734123      -18.533661
 C         -24.020260      -66.156342      -19.934708
 C         -25.862309      -66.148422      -17.948563
 C         -24.239771      -67.735931      -20.060434
 C         -26.251722      -67.563385      -18.413868
 C         -25.715027      -67.927971      -19.823935
 H         -22.999327      -66.016151      -19.992825
 H         -24.469843      -65.569069      -20.810551
 H         -25.634077      -65.914467      -16.864470
 H         -26.686752      -65.436142      -18.136864
 H         -23.603168      -68.307884      -19.270519
 H         -23.852423      -68.036659      -21.036442
 H         -27.398920      -67.684868      -18.441408
 H         -25.861660      -68.222305      -17.615231
 H         -25.943457      -69.027603      -20.019730
 H         -26.281618      -67.354553      -20.522530
