20
 generated by VMD
 C         -66.757431     -189.630219      -66.539894
 N         -66.240234     -189.423508      -67.539352
 H         -70.458099     -190.275192      -65.750923
 H         -67.268158     -189.985245      -65.699646
 C         -70.753723     -190.080154      -64.680664
 C         -72.015129     -190.831924      -64.114494
 C         -70.404419     -188.687607      -64.147942
 C         -73.188919     -189.864258      -64.041176
 C         -71.660698     -187.933823      -63.723618
 C         -72.820679     -188.733994      -63.160534
 H         -71.892754     -191.076248      -63.075275
 H         -72.198029     -191.751938      -64.566277
 H         -69.813828     -188.944382      -63.214035
 H         -69.778275     -188.133469      -64.785202
 H         -73.982445     -190.374573      -63.466225
 H         -73.443329     -189.496780      -65.050331
 H         -72.029961     -187.421234      -64.628792
 H         -71.525253     -187.173477      -62.950390
 H         -72.669174     -189.105270      -62.083145
 H         -73.643295     -188.101822      -63.050735
