20
 generated by VMD
 C         -11.955544      -31.517036       -8.268415
 N         -12.082691      -30.649046       -7.574697
 H         -11.441676      -34.823803       -7.863743
 H         -12.764247      -34.073578       -7.073015
 C         -11.899525      -34.643372       -6.869350
 C         -10.838417      -34.023239       -6.030108
 C         -12.173926      -36.058483       -6.336246
 C         -11.267938      -33.751812       -4.622629
 C         -12.600291      -35.925133       -4.864602
 C         -11.514295      -35.113335       -3.992960
 H         -10.498199      -33.073372       -6.517559
 H          -9.936934      -34.620594       -6.061768
 H         -12.951623      -36.513725       -6.945484
 H         -11.282823      -36.677513       -6.519449
 H         -11.989068      -32.939339       -4.450431
 H         -10.417760      -33.368267       -3.994087
 H         -12.672179      -36.920422       -4.334219
 H         -13.552664      -35.450058       -4.718760
 H         -11.882462      -35.010326       -2.966748
 H         -10.557495      -35.739723       -3.966340
