20
 generated by VMD
 C         -31.102045      -77.455765      -25.112318
 N         -32.063515      -77.056046      -25.670523
 H         -29.104143      -76.841202      -22.336678
 H         -29.993994      -77.748665      -24.996359
 C         -28.633291      -77.854263      -22.360228
 C         -27.430462      -77.973404      -23.260569
 C         -28.956264      -78.797005      -21.232727
 C         -26.289558      -78.693398      -22.524216
 C         -27.757645      -79.741539      -20.745646
 C         -26.755793      -79.961075      -21.841276
 H         -27.137066      -76.958298      -23.530619
 H         -27.714790      -78.650490      -24.088110
 H         -29.396297      -78.281662      -20.356226
 H         -29.698559      -79.512802      -21.567854
 H         -25.765942      -77.980072      -21.861271
 H         -25.506336      -79.011765      -23.188908
 H         -28.249376      -80.737755      -20.299711
 H         -27.294024      -79.250107      -19.862116
 H         -25.881605      -80.399498      -21.305161
 H         -26.983421      -80.798553      -22.446827
