20
 generated by VMD
 C         -19.429520      -63.713013      -16.553347
 N         -20.162397      -63.003948      -17.148348
 H         -23.019316      -63.662510      -17.129631
 H         -18.808784      -64.536942      -16.189024
 C         -23.752022      -64.461899      -17.480518
 C         -24.416069      -64.167595      -18.873472
 C         -24.630707      -65.074181      -16.464218
 C         -24.750149      -65.556427      -19.505436
 C         -24.777739      -66.465576      -17.041622
 C         -25.432682      -66.444641      -18.397863
 H         -23.705141      -63.622993      -19.517458
 H         -25.393204      -63.703762      -18.747671
 H         -24.160404      -65.048004      -15.460655
 H         -25.516674      -64.568977      -16.176044
 H         -23.818691      -65.999062      -19.964315
 H         -25.557159      -65.310173      -20.239817
 H         -25.417170      -67.155106      -16.477245
 H         -23.799078      -66.965363      -17.117022
 H         -25.605322      -67.432922      -18.797121
 H         -26.468365      -66.135513      -18.156464
