20
 generated by VMD
 C         -41.532814     -120.199913      -34.040768
 N         -42.104473     -121.133194      -34.468655
 H         -43.480354     -119.364487      -37.228333
 H         -40.947178     -119.242798      -33.806702
 C         -43.913349     -118.907738      -38.173660
 C         -43.091194     -118.658730      -39.420712
 C         -45.305874     -118.323776      -38.043736
 C         -43.976501     -118.822350      -40.640793
 C         -46.052818     -118.355423      -39.439709
 C         -45.249050     -117.964462      -40.647484
 H         -42.246338     -119.364891      -39.362343
 H         -42.566109     -117.756439      -39.268810
 H         -45.928059     -118.924789      -37.427387
 H         -45.185043     -117.408768      -37.463802
 H         -44.379620     -119.902901      -40.661228
 H         -43.381199     -118.705109      -41.564220
 H         -46.964424     -117.658211      -39.400585
 H         -46.503170     -119.289078      -39.503719
 H         -45.789539     -118.081413      -41.608807
 H         -45.197903     -116.832893      -40.644436
