20
 generated by VMD
 C         -67.700371     -179.423141      -58.600372
 N         -68.367722     -180.211411      -58.049953
 H         -66.673820     -176.544220      -59.495872
 H         -67.114052     -178.742325      -59.175041
 C         -65.953201     -176.057068      -59.961647
 C         -66.037453     -175.002914      -61.028511
 C         -64.575874     -176.485886      -59.537830
 C         -64.984253     -173.895889      -60.947685
 C         -63.649357     -175.283295      -59.388485
 C         -63.610893     -174.382355      -60.623329
 H         -67.179428     -174.670792      -60.970879
 H         -65.830025     -175.596405      -61.934826
 H         -64.508469     -177.068237      -58.623940
 H         -64.093002     -177.068420      -60.259289
 H         -65.263535     -173.382309      -60.003895
 H         -65.035545     -173.247162      -61.834610
 H         -62.635830     -175.582214      -59.099369
 H         -63.990620     -174.742294      -58.491261
 H         -62.896343     -173.625168      -60.299751
 H         -63.189667     -174.961288      -61.429794
