20
 generated by VMD
 C         -38.125923     -108.008789      -37.262115
 N         -38.804272     -107.549759      -38.098545
 H         -40.604683     -108.290054      -34.389416
 H         -37.288559     -108.508400      -36.748665
 C         -40.918282     -109.309799      -34.510815
 C         -39.960487     -110.537895      -34.668591
 C         -42.324528     -109.615601      -33.991257
 C         -39.924213     -111.314911      -33.403671
 C         -42.204414     -110.460754      -32.711063
 C         -41.234333     -111.618828      -32.968731
 H         -38.948433     -110.220963      -34.864929
 H         -40.383713     -111.172157      -35.475040
 H         -42.906036     -108.692841      -33.684704
 H         -42.752243     -110.147545      -34.819618
 H         -39.441772     -110.720306      -32.534233
 H         -39.356926     -112.299927      -33.617191
 H         -43.063244     -110.923294      -32.366238
 H         -41.907146     -109.796745      -31.913002
 H         -41.088219     -112.189011      -31.939095
 H         -41.771500     -112.383667      -33.564495
