20
 generated by VMD
 C         -40.554962     -100.193909      -30.306038
 N         -41.303314     -100.504265      -29.455366
 H         -37.185394     -101.196030      -30.625286
 H         -39.877506     -100.120674      -31.202499
 C         -36.491322     -100.334000      -30.859371
 C         -36.159569     -100.029800      -32.244583
 C         -35.279392     -100.199310      -29.902075
 C         -35.214806      -98.813881      -32.339184
 C         -34.436028      -98.972359      -30.088503
 C         -33.967148      -98.937843      -31.536398
 H         -37.049915      -99.712921      -32.846603
 H         -35.701931     -100.841331      -32.829346
 H         -35.726406     -100.244286      -28.838425
 H         -34.622025     -101.080399      -29.963465
 H         -35.767139      -97.873192      -32.206593
 H         -35.000824      -98.806549      -33.458508
 H         -33.608040      -99.027870      -29.319765
 H         -34.996861      -98.144562      -29.779539
 H         -33.305557      -98.133369      -31.659899
 H         -33.448605      -99.898224      -31.855343
