20
 generated by VMD
 C         -58.898468     -161.107605      -56.650517
 N         -58.542492     -160.184113      -57.164497
 H         -58.951347     -164.164810      -54.906689
 H         -59.099689     -162.030060      -56.150009
 C         -59.743118     -163.501480      -54.492195
 C         -59.515659     -163.277039      -52.983868
 C         -61.091934     -163.482483      -55.128075
 C         -60.386646     -162.188721      -52.414753
 C         -62.029720     -162.442734      -54.413414
 C         -61.881847     -162.228012      -52.825218
 H         -58.445030     -162.997604      -52.843540
 H         -59.973507     -164.267929      -52.668903
 H         -61.011219     -163.267532      -56.156509
 H         -61.520226     -164.495468      -55.012554
 H         -59.996960     -161.233734      -52.862930
 H         -60.315746     -161.966614      -51.403446
 H         -63.148026     -162.430908      -54.665943
 H         -61.816818     -161.439606      -54.942131
 H         -62.293072     -161.231842      -52.625000
 H         -62.444149     -162.974121      -52.178925
