20
 generated by VMD
 C          -3.675507      -19.022669        2.382731
 N          -3.291559      -18.280582        3.125180
 H          -5.483408      -20.335751        0.221825
 H          -6.247773      -21.288185       -1.140620
 C          -6.172768      -20.281473       -0.655820
 C          -5.536020      -19.202827       -1.547326
 C          -7.631563      -19.922485       -0.167961
 C          -6.401421      -18.933378       -2.734172
 C          -8.603621      -19.460205       -1.312971
 C          -7.804515      -18.432404       -2.170281
 H          -4.623196      -19.624224       -1.984340
 H          -5.227707      -18.323278       -0.883786
 H          -8.040430      -20.821825        0.255306
 H          -7.617107      -19.148685        0.553117
 H          -6.578098      -19.837856       -3.328343
 H          -5.933792      -18.145082       -3.290229
 H          -9.502666      -19.054344       -0.890077
 H          -8.877912      -20.295280       -1.967648
 H          -8.393661      -18.061558       -3.042533
 H          -7.582552      -17.563795       -1.536348
