20
 generated by VMD
 C         -60.288315     -170.595520      -55.191669
 N         -59.212479     -170.993484      -55.295616
 H         -63.287354     -170.594467      -56.572979
 H         -61.268597     -170.241135      -54.988548
 C         -63.496433     -169.571884      -56.995247
 C         -62.315578     -168.773849      -57.653648
 C         -64.595436     -168.842896      -56.350899
 C         -62.933781     -167.975906      -58.725796
 C         -65.200592     -168.020004      -57.472183
 C         -64.146065     -167.084976      -58.185398
 H         -61.596687     -169.623978      -58.046684
 H         -61.800747     -168.219299      -56.893055
 H         -65.306587     -169.560074      -56.008270
 H         -64.160034     -168.283524      -55.536743
 H         -63.346416     -168.641037      -59.547073
 H         -62.330555     -167.183868      -59.287777
 H         -65.971558     -167.446060      -57.052631
 H         -65.538475     -168.628738      -58.219532
 H         -64.722359     -166.653961      -59.016125
 H         -63.710812     -166.213379      -57.636734
