20
 generated by VMD
 C         -63.435074     -174.613647      -56.266739
 N         -62.274643     -174.803452      -56.129013
 H         -66.258087     -173.162857      -58.051304
 H         -64.496063     -174.462524      -56.518002
 C         -65.572617     -172.468307      -58.457752
 C         -65.562386     -170.913818      -58.001537
 C         -64.554298     -172.826874      -59.624844
 C         -64.150108     -170.307526      -58.074181
 C         -63.348907     -171.967041      -59.830112
 C         -63.539112     -170.515533      -59.469322
 H         -65.940376     -170.798553      -57.037163
 H         -66.327713     -170.423965      -58.782475
 H         -64.203583     -173.926865      -59.448257
 H         -65.124283     -172.880127      -60.577396
 H         -63.455128     -170.850967      -57.267509
 H         -64.148941     -169.187225      -57.807613
 H         -62.795979     -172.037262      -60.792286
 H         -62.567207     -172.404495      -59.183640
 H         -62.530655     -170.083344      -59.531937
 H         -64.185417     -169.941986      -60.254234
