20
 generated by VMD
 C         -40.719048     -100.224228      -30.162960
 N         -40.912788     -100.367668      -29.051460
 H         -37.505569      -99.941284      -30.569225
 H         -40.437725      -99.852310      -31.187677
 C         -36.349930      -99.919250      -30.805059
 C         -35.975536      -99.812370      -32.260960
 C         -35.362396      -99.955276      -29.749479
 C         -35.133308      -98.547600      -32.527866
 C         -34.379246      -98.747467      -30.023428
 C         -33.898487      -98.730034      -31.485203
 H         -36.897598      -99.904907      -32.803551
 H         -35.368973     -100.688751      -32.570904
 H         -35.789268      -99.992165      -28.775137
 H         -34.864983     -100.936165      -29.907068
 H         -35.672359      -97.636566      -32.278294
 H         -34.774876      -98.548630      -33.549763
 H         -33.591076      -98.642761      -29.329811
 H         -34.817097      -97.707169      -29.869431
 H         -32.967392      -98.074661      -31.721197
 H         -33.432472      -99.661179      -31.759352
