20
 generated by VMD
 C         -60.721951     -153.915314      -51.364674
 N         -61.377720     -154.353928      -52.199364
 H         -57.548347     -153.816742      -52.506401
 H         -60.186687     -153.481750      -50.558292
 C         -56.787979     -153.462830      -51.828682
 C         -56.842419     -153.905167      -50.445404
 C         -55.759720     -152.491425      -52.275517
 C         -55.497383     -154.052811      -49.692131
 C         -54.390949     -152.873550      -51.577274
 C         -54.510090     -152.972794      -50.046131
 H         -57.323475     -154.816177      -50.205044
 H         -57.456402     -153.267578      -49.871052
 H         -55.766151     -152.342133      -53.413921
 H         -56.083000     -151.511536      -51.872314
 H         -54.905357     -155.035034      -49.832809
 H         -55.656242     -154.094528      -48.573994
 H         -53.824455     -151.919983      -51.865604
 H         -53.851295     -153.753479      -51.838860
 H         -53.571739     -152.866760      -49.595589
 H         -55.123180     -152.088257      -49.599327
