20
 generated by VMD
 C         -49.428753     -127.491600      -39.437576
 N         -50.463654     -127.405991      -39.974026
 H         -47.089809     -127.279991      -42.569347
 H         -48.495319     -127.621101      -38.922363
 C         -46.318096     -126.610260      -42.065491
 C         -45.584133     -127.063721      -40.854073
 C         -46.544212     -125.067070      -42.013000
 C         -44.409340     -126.201027      -40.379257
 C         -45.341129     -124.216705      -41.571728
 C         -44.843472     -124.785149      -40.243435
 H         -45.271702     -128.127945      -40.945435
 H         -46.321709     -127.219315      -40.057831
 H         -46.924038     -124.763405      -42.992264
 H         -47.481625     -124.893661      -41.469604
 H         -43.516174     -126.395157      -41.020782
 H         -44.104877     -126.603874      -39.368343
 H         -45.639599     -123.089027      -41.283096
 H         -44.587128     -124.155838      -42.418171
 H         -44.044567     -124.157326      -39.789917
 H         -45.663113     -124.683716      -39.582016
