20
 generated by VMD
 C         -12.770823      -28.410744       -5.822031
 N         -13.069757      -28.644428       -6.870112
 H         -12.033819      -31.290720       -5.000441
 H         -10.938026      -29.902727       -4.989807
 C         -11.061513      -30.935246       -4.747015
 C         -10.050104      -31.776981       -5.497324
 C         -10.828898      -31.109592       -3.228671
 C          -8.659753      -31.452379       -5.167407
 C          -9.412038      -30.596601       -2.963843
 C          -8.365172      -31.391708       -3.735118
 H         -10.313556      -31.666027       -6.626543
 H         -10.353772      -32.764511       -5.231135
 H         -11.547562      -30.535755       -2.618819
 H         -10.912987      -32.218941       -2.970964
 H          -8.405836      -30.507591       -5.677282
 H          -7.978722      -32.243015       -5.563446
 H          -9.171523      -30.600758       -1.867613
 H          -9.392799      -29.557455       -3.286157
 H          -7.402130      -31.005112       -3.595676
 H          -8.479229      -32.410690       -3.363932
