20
 generated by VMD
 C         -58.605137     -160.081543      -56.999325
 N         -58.497391     -159.927811      -58.171963
 H         -58.851902     -162.449600      -54.969929
 H         -58.613392     -160.229782      -55.930439
 C         -59.577911     -162.429779      -54.182274
 C         -59.063835     -162.575958      -52.801334
 C         -60.951569     -162.732651      -54.617512
 C         -60.286213     -162.110092      -51.899094
 C         -61.850155     -161.946228      -53.634197
 C         -61.710941     -162.451904      -52.302734
 H         -58.243118     -161.866180      -52.640694
 H         -58.706020     -163.611588      -52.671322
 H         -61.098282     -162.263260      -55.667664
 H         -61.163246     -163.771240      -54.546379
 H         -60.385906     -161.000702      -51.701881
 H         -60.163727     -162.528107      -50.798180
 H         -62.804031     -162.091644      -54.162338
 H         -61.822475     -160.794876      -53.650974
 H         -62.487640     -161.962189      -51.619701
 H         -61.866940     -163.542358      -52.198574
