20
 generated by VMD
 C         -10.981465      -35.092766       -9.291931
 N         -10.444293      -35.173012       -8.285244
 H         -12.603728      -36.980545       -7.250571
 H         -13.728185      -37.331329       -5.859939
 C         -13.330965      -37.700657       -6.861641
 C         -12.683599      -39.057686       -6.697904
 C         -14.428473      -37.628712       -7.938760
 C         -13.773610      -40.079678       -6.326192
 C         -15.482624      -38.733860       -7.703909
 C         -14.864503      -40.107113       -7.451131
 H         -11.916203      -39.031013       -5.877348
 H         -12.224362      -39.374706       -7.702787
 H         -14.877410      -36.652565       -7.925189
 H         -13.941033      -37.859280       -8.939050
 H         -14.261639      -39.730801       -5.415046
 H         -13.263516      -41.084785       -6.184708
 H         -16.190310      -38.795223       -8.459384
 H         -16.040857      -38.498501       -6.762175
 H         -15.658656      -40.718853       -7.078022
 H         -14.545117      -40.548923       -8.400799
