20
 generated by VMD
 C         -11.615127      -33.712189       -8.449976
 N         -10.793652      -33.647949       -9.219285
 H         -11.672729      -36.697918       -8.121424
 H         -12.072440      -36.246738       -6.465690
 C         -12.236141      -37.011433       -7.246904
 C         -11.983428      -38.317005       -6.540666
 C         -13.715953      -36.836903       -7.634301
 C         -12.943049      -38.592133       -5.409560
 C         -14.739132      -37.228661       -6.554289
 C         -14.458991      -38.518185       -5.779088
 H         -10.931622      -38.328705       -6.251896
 H         -12.015182      -39.145683       -7.265298
 H         -13.969725      -35.879589       -8.148468
 H         -13.860914      -37.532463       -8.447573
 H         -12.677922      -37.890697       -4.613385
 H         -12.794353      -39.541824       -4.902559
 H         -15.761165      -37.391743       -7.076567
 H         -14.840231      -36.435608       -5.823761
 H         -15.112965      -38.579689       -4.901779
 H         -14.627016      -39.442963       -6.413864
