20
 generated by VMD
 C         -46.507034     -124.439018      -36.182621
 N         -46.966179     -125.301598      -35.602890
 H         -44.545425     -121.540894      -37.862659
 H         -45.918915     -123.566010      -36.504093
 C         -44.481350     -121.504257      -39.002419
 C         -43.279766     -121.639801      -39.826820
 C         -45.704292     -120.874779      -39.609756
 C         -43.593964     -121.864487      -41.323483
 C         -45.938755     -121.206139      -41.073948
 C         -44.612354     -120.954185      -41.793388
 H         -42.634872     -122.463867      -39.392704
 H         -42.759041     -120.697342      -39.898605
 H         -46.550476     -121.083153      -38.917110
 H         -45.583691     -119.786201      -39.549759
 H         -43.921066     -122.969757      -41.444931
 H         -42.714043     -121.885361      -42.014553
 H         -46.701584     -120.632103      -41.579506
 H         -46.137196     -122.313370      -41.223568
 H         -44.657669     -120.918594      -42.896126
 H         -44.288918     -119.892662      -41.550518
