20
 generated by VMD
 C         -19.366608      -49.979645       -9.298535
 N         -19.616032      -51.074459       -9.677146
 H         -16.834969      -47.727734       -9.943481
 H         -19.321369      -49.040924       -9.339225
 C         -16.689833      -47.969891      -10.982505
 C         -15.710423      -49.008724      -11.531366
 C         -17.241859      -47.147774      -12.077357
 C         -16.178640      -49.756733      -12.804069
 C         -17.954905      -48.119431      -13.049830
 C         -16.908703      -48.940685      -13.835882
 H         -15.412592      -49.785122      -10.833838
 H         -14.853761      -48.380421      -11.828702
 H         -17.948650      -46.388458      -11.714849
 H         -16.493876      -46.635956      -12.699051
 H         -16.919973      -50.518024      -12.475736
 H         -15.284826      -50.233353      -13.217200
 H         -18.520468      -47.483833      -13.744126
 H         -18.656384      -48.875450      -12.533479
 H         -17.472692      -49.623749      -14.462957
 H         -16.310665      -48.374714      -14.485221
