20
 generated by VMD
 C         -10.439642      -35.629837       -8.113356
 N         -10.131062      -35.944756       -9.165777
 H         -13.489141      -37.071815       -6.534042
 H         -14.769317      -38.130207       -5.875271
 C         -14.091805      -37.974327       -6.743843
 C         -13.072565      -39.195923       -6.810765
 C         -15.027315      -37.991707       -7.925484
 C         -13.867859      -40.588833       -6.886221
 C         -15.777746      -39.319485       -8.040329
 C         -14.866519      -40.619282       -8.083299
 H         -12.525174      -39.157326       -5.883409
 H         -12.455481      -39.069500       -7.689958
 H         -15.710155      -37.205647       -7.692624
 H         -14.395960      -37.814346       -8.851563
 H         -14.464052      -40.704365       -5.974597
 H         -13.115702      -41.407387       -7.057250
 H         -16.383959      -39.269749       -8.910868
 H         -16.488325      -39.411247       -7.134262
 H         -15.465816      -41.509670       -8.015610
 H         -14.315614      -40.661037       -9.047803
