20
 generated by VMD
 C         -20.536816      -57.273010      -16.887978
 N         -20.700380      -56.438755      -16.128462
 H         -22.493025      -59.743668      -17.825550
 H         -20.735178      -57.974827      -17.548630
 C         -22.074146      -60.161106      -16.827278
 C         -22.698334      -59.532337      -15.656837
 C         -21.721657      -61.646465      -16.803650
 C         -22.056473      -59.988701      -14.236743
 C         -20.836510      -61.933861      -15.585955
 C         -21.672863      -61.489498      -14.279279
 H         -23.735062      -59.882877      -15.741632
 H         -22.641068      -58.394154      -15.788496
 H         -22.542612      -62.333496      -16.831966
 H         -21.050705      -61.863964      -17.651068
 H         -22.767784      -59.751560      -13.471618
 H         -21.151300      -59.421913      -13.958562
 H         -19.747231      -61.499622      -15.544620
 H         -20.869591      -63.038853      -15.418321
 H         -22.496756      -62.176197      -14.164170
 H         -21.058752      -61.729862      -13.373671
