20
 generated by VMD
 C         -48.286182     -135.467636      -46.126034
 N         -47.363533     -135.185989      -46.703506
 H         -51.279823     -134.703049      -45.424503
 H         -49.278877     -135.802917      -45.764099
 C         -51.468773     -135.630280      -45.008099
 C         -52.129913     -136.942169      -45.463947
 C         -51.307659     -135.437103      -43.482311
 C         -51.422581     -138.110382      -44.887505
 C         -50.542786     -136.663361      -42.898006
 C         -51.363243     -137.994537      -43.328018
 H         -51.928341     -136.941650      -46.496632
 H         -53.257057     -136.971588      -45.311375
 H         -50.837563     -134.480606      -43.330990
 H         -52.375431     -135.259613      -43.132481
 H         -50.343102     -138.241211      -45.258690
 H         -51.940399     -139.026245      -45.215015
 H         -50.542885     -136.639145      -41.808064
 H         -49.482300     -136.811234      -43.328945
 H         -50.755207     -138.773560      -42.990334
 H         -52.382607     -137.847748      -42.924740
