20
 generated by VMD
 C         -31.564482      -78.587479      -26.346518
 N         -31.250191      -77.925697      -27.262190
 H         -29.456175      -79.460640      -23.606792
 H         -32.047485      -78.985909      -25.379923
 C         -29.036919      -80.506805      -23.685629
 C         -27.544102      -80.687729      -23.311890
 C         -29.993296      -81.744247      -23.485474
 C         -27.539606      -81.026360      -21.849176
 C         -29.900284      -82.158112      -22.034727
 C         -28.522707      -82.239540      -21.454908
 H         -27.050875      -79.757050      -23.495993
 H         -27.224966      -81.457390      -24.040792
 H         -30.989429      -81.732697      -23.855867
 H         -29.478359      -82.545677      -24.110273
 H         -27.862225      -80.198395      -21.256792
 H         -26.514788      -81.182602      -21.515036
 H         -30.486835      -83.098564      -21.908800
 H         -30.391260      -81.342300      -21.439749
 H         -28.785269      -82.249542      -20.341520
 H         -27.958309      -83.140961      -21.752823
