20
 generated by VMD
 C         -67.851173     -185.878876      -67.033752
 N         -68.577217     -185.306961      -67.761452
 H         -68.681854     -188.372467      -64.596237
 H         -67.061096     -186.392639      -66.422874
 C         -69.240761     -187.922058      -63.739254
 C         -68.984520     -186.537979      -63.224472
 C         -70.715256     -188.405731      -63.619919
 C         -69.407478     -186.465775      -61.784988
 C         -71.126678     -188.380859      -62.019981
 C         -70.887901     -186.968933      -61.533485
 H         -69.551147     -185.828964      -63.832081
 H         -67.937080     -186.190796      -63.335384
 H         -71.495300     -187.799484      -64.209358
 H         -70.738800     -189.471924      -63.836941
 H         -69.279541     -185.379837      -61.459156
 H         -68.872139     -187.038406      -61.080334
 H         -70.393402     -189.051147      -61.441105
 H         -72.175629     -188.757446      -62.013466
 H         -71.431358     -186.257751      -62.150742
 H         -71.137436     -186.885010      -60.418777
