20
 generated by VMD
 C         -57.987720     -167.755875      -55.282921
 N         -56.966644     -168.126678      -54.978100
 H         -61.254959     -166.548019      -55.186817
 H         -58.971687     -167.343002      -55.419796
 C         -62.092579     -166.356201      -55.880390
 C         -62.356373     -167.191650      -57.212864
 C         -62.823383     -165.102432      -55.599552
 C         -63.848881     -167.421112      -57.316448
 C         -64.302597     -165.380493      -55.722717
 C         -64.740929     -166.122849      -57.019119
 H         -61.836712     -168.126724      -57.025555
 H         -61.970604     -166.561981      -58.027508
 H         -62.608372     -164.656860      -54.615917
 H         -62.601692     -164.263351      -56.363132
 H         -64.143509     -168.180481      -56.508316
 H         -64.077995     -167.959686      -58.255013
 H         -64.856682     -164.535950      -55.604309
 H         -64.420937     -166.122070      -54.956547
 H         -65.789612     -166.464935      -56.869556
 H         -64.659691     -165.395905      -57.875824
