20
 generated by VMD
 C          -1.984322       -8.663194       -0.646716
 N          -2.001730       -8.032613        0.245720
 H          -3.278409       -9.459592        2.706439
 H          -1.922811      -10.521845        3.083755
 C          -3.052042      -10.419149        3.066122
 C          -3.581425      -11.449436        2.074491
 C          -3.364017      -10.674831        4.513207
 C          -3.385100      -12.912500        2.647607
 C          -3.109543      -12.092781        5.011495
 C          -3.896182      -13.005188        4.074533
 H          -3.129378      -11.189213        1.089571
 H          -4.661860      -11.313098        1.955149
 H          -2.685276       -9.978674        5.147143
 H          -4.458314      -10.454350        4.613779
 H          -2.335088      -13.165158        2.459242
 H          -4.002371      -13.489659        1.957588
 H          -3.400392      -12.198818        6.081657
 H          -2.062726      -12.297595        4.887045
 H          -3.708966      -14.041206        4.345421
 H          -4.942218      -12.745437        4.158470
