20
 generated by VMD
 C         -13.303821      -30.397303       -8.318703
 N         -13.730330      -30.224112       -9.326823
 H         -10.859766      -31.282740       -5.402137
 H         -10.950224      -31.743723       -3.672492
 C         -10.824299      -32.072796       -4.681085
 C          -9.476596      -32.662537       -4.798903
 C         -11.897233      -33.092945       -4.994227
 C          -9.331218      -34.008545       -4.074024
 C         -11.854286      -34.470127       -4.278000
 C         -10.443796      -35.025574       -4.465928
 H          -8.727589      -32.017929       -4.280145
 H          -9.222771      -32.863319       -5.814838
 H         -12.890850      -32.638390       -4.734199
 H         -11.842626      -33.326206       -6.101742
 H          -9.519396      -33.834728       -2.997047
 H          -8.274840      -34.386513       -4.255421
 H         -12.632377      -35.079281       -4.777536
 H         -12.045214      -34.338154       -3.214475
 H         -10.372736      -36.014759       -3.944214
 H         -10.324081      -35.160275       -5.561746
