20
 generated by VMD
 C         -68.912170     -184.675034      -66.286781
 N         -69.544037     -185.455521      -66.843826
 H         -69.556793     -182.802216      -63.424465
 H         -68.443176     -183.905731      -65.657433
 C         -69.113907     -183.603699      -62.818214
 C         -69.835571     -184.751114      -62.276012
 C         -68.098274     -182.978806      -61.913528
 C         -68.972961     -185.649124      -61.304943
 C         -67.091072     -183.847275      -61.326206
 C         -67.810974     -184.899689      -60.444145
 H         -70.335548     -185.457855      -63.003418
 H         -70.659851     -184.329407      -61.665966
 H         -67.612442     -182.170578      -62.397499
 H         -68.787483     -182.457703      -61.188416
 H         -68.450455     -186.402252      -61.917919
 H         -69.575371     -186.241760      -60.613598
 H         -66.327652     -183.293564      -60.812149
 H         -66.635040     -184.399002      -62.141483
 H         -67.056053     -185.783646      -60.296680
 H         -68.244217     -184.558807      -59.522572
