20
 generated by VMD
 C         -43.160069     -120.879822      -35.455250
 N         -42.755581     -120.850182      -34.392395
 H         -44.152443     -121.500992      -38.788925
 H         -43.746166     -120.799004      -36.331013
 C         -44.088470     -120.462875      -38.671810
 C         -43.169376     -119.663513      -39.550941
 C         -45.214031     -119.488434      -38.209057
 C         -43.824814     -118.974152      -40.751823
 C         -45.917870     -118.768517      -39.392357
 C         -44.913471     -118.000229      -40.200352
 H         -42.457016     -120.325722      -40.016537
 H         -42.576126     -119.097542      -38.930115
 H         -45.856731     -120.150604      -37.642784
 H         -44.679176     -118.791313      -37.608791
 H         -44.186172     -119.815712      -41.415119
 H         -43.039547     -118.308960      -41.232201
 H         -46.627789     -118.041153      -38.896553
 H         -46.577335     -119.517342      -39.899849
 H         -45.539875     -117.547371      -41.030895
 H         -44.453773     -117.131737      -39.712997
