20
 generated by VMD
 C         -70.714371     -197.119385      -65.053825
 N         -69.859573     -197.653015      -65.626846
 H         -73.059837     -196.679123      -65.896393
 H         -71.320786     -196.596466      -64.354515
 C         -73.402069     -195.854095      -66.542648
 C         -72.954277     -194.382980      -66.239273
 C         -74.392883     -196.068527      -67.714180
 C         -72.621872     -193.521301      -67.428543
 C         -74.715591     -194.795792      -68.449707
 C         -73.489395     -193.914734      -68.670891
 H         -72.074608     -194.405655      -65.617447
 H         -73.994591     -193.922577      -65.816856
 H         -73.964752     -196.774109      -68.399780
 H         -75.264153     -196.473953      -67.255913
 H         -71.580597     -193.593002      -67.717056
 H         -72.839218     -192.504776      -67.181107
 H         -75.487076     -194.247574      -67.863304
 H         -75.228989     -195.046143      -69.379852
 H         -72.765327     -194.694031      -69.222275
 H         -73.779839     -193.170624      -69.325798
