20
 generated by VMD
 C         -74.678627     -201.595413      -66.048172
 N         -73.681458     -200.956802      -65.994812
 H         -76.340645     -198.835907      -68.393860
 H         -75.617233     -202.128784      -66.048409
 C         -75.427780     -198.435822      -68.812630
 C         -75.026237     -197.148270      -68.187218
 C         -74.539032     -198.950684      -69.911987
 C         -73.555634     -196.895157      -68.112404
 C         -73.117912     -198.371429      -70.081421
 C         -72.561363     -197.843826      -68.768929
 H         -75.350601     -197.245895      -67.136864
 H         -75.447258     -196.325806      -68.622681
 H         -74.392769     -200.045914      -69.856735
 H         -75.076393     -198.742493      -70.851929
 H         -73.282288     -196.721848      -67.031044
 H         -73.194489     -195.982178      -68.537407
 H         -73.124062     -197.518585      -70.748718
 H         -72.558395     -199.207016      -70.446884
 H         -72.344353     -198.753906      -68.111069
 H         -71.677834     -197.346024      -68.940613
