20
 generated by VMD
 C         -31.941282      -76.226105      -24.442966
 N         -31.485725      -76.627663      -25.398638
 H         -29.707569      -77.776283      -22.563366
 H         -31.978125      -75.770905      -23.485565
 C         -28.645712      -77.903915      -22.258425
 C         -27.574518      -78.028114      -23.280512
 C         -28.376049      -78.376350      -20.872213
 C         -26.180975      -78.091988      -22.783413
 C         -26.937790      -78.502571      -20.314457
 C         -25.951170      -78.835594      -21.459612
 H         -27.739889      -77.351799      -24.237772
 H         -27.775188      -79.002495      -23.808136
 H         -29.084038      -77.873283      -20.194778
 H         -28.761923      -79.368484      -21.119162
 H         -25.825317      -77.045471      -22.721663
 H         -25.501568      -78.563728      -23.497587
 H         -26.795874      -79.269196      -19.547621
 H         -26.624537      -77.409050      -19.803902
 H         -24.911274      -78.487701      -21.094742
 H         -26.022011      -79.911217      -21.684200
