20
 generated by VMD
 C         -49.841270     -142.110931      -45.181778
 N         -49.110447     -142.962128      -45.317451
 H         -51.644444     -139.143463      -45.920441
 H         -50.395966     -141.256271      -44.920399
 C         -52.313118     -139.901031      -46.434151
 C         -52.435490     -140.154907      -47.890118
 C         -53.607960     -140.462006      -45.581223
 C         -52.868301     -141.569672      -48.286068
 C         -54.171299     -141.748703      -46.110195
 C         -54.266895     -141.865906      -47.650036
 H         -51.498631     -139.849579      -48.333038
 H         -53.259384     -139.543457      -48.338223
 H         -53.177216     -140.586609      -44.572731
 H         -54.390713     -139.609528      -45.731194
 H         -52.174221     -142.315140      -47.846943
 H         -52.887501     -141.583603      -49.432274
 H         -55.147621     -141.866104      -45.771233
 H         -53.610611     -142.520691      -45.643646
 H         -54.479950     -142.934341      -47.894634
 H         -55.028179     -141.147842      -47.996719
