20
 generated by VMD
 C         -28.200346      -86.416512      -26.939396
 N         -27.730118      -85.537003      -26.291491
 H         -31.230373      -85.484299      -25.496096
 H         -28.463009      -87.241302      -27.503168
 C         -31.991184      -86.232903      -25.616043
 C         -32.582394      -86.843994      -24.397478
 C         -31.963810      -86.912727      -26.868811
 C         -33.953053      -87.222206      -24.750647
 C         -33.377296      -87.613968      -27.200418
 C         -34.132912      -88.164047      -25.946367
 H         -32.534065      -86.103424      -23.578547
 H         -31.997208      -87.730042      -24.171936
 H         -31.748049      -86.281761      -27.700546
 H         -31.268764      -87.792496      -26.869072
 H         -34.620716      -86.370811      -24.864456
 H         -34.379089      -87.657669      -23.746597
 H         -33.160400      -88.359940      -27.985920
 H         -34.019516      -86.896996      -27.693369
 H         -35.149174      -88.285225      -26.230066
 H         -33.754959      -89.093887      -25.656183
