20
 generated by VMD
 C         -15.204711      -46.703503       -6.156553
 N         -15.066090      -47.253735       -5.196445
 H         -15.936457      -45.918800       -9.577783
 H         -14.861718      -46.001225      -10.938396
 C         -15.894850      -45.799000      -10.637164
 C         -16.421711      -44.437668      -11.096297
 C         -16.728724      -46.817223      -11.402000
 C         -16.505005      -44.065479      -12.593769
 C         -16.733759      -46.530197      -12.934075
 C         -17.261885      -45.122345      -13.303797
 H         -15.835997      -43.657280      -10.648021
 H         -17.417601      -44.282963      -10.642336
 H         -16.492462      -47.857704      -11.197396
 H         -17.725979      -46.743717      -10.957895
 H         -15.505666      -43.854450      -12.967228
 H         -17.015255      -43.092796      -12.740125
 H         -17.378441      -47.266933      -13.378086
 H         -15.771825      -46.698479      -13.402068
 H         -17.231747      -44.886448      -14.359991
 H         -18.316601      -45.129936      -12.937408
