20
 generated by VMD
 C         -35.432762      -97.499382      -25.535099
 N         -35.005558      -97.730347      -26.611063
 H         -35.728123      -94.558014      -27.685555
 H         -35.644897      -97.220383      -24.558025
 C         -35.369408      -94.425789      -28.715872
 C         -35.903996      -95.350502      -29.824829
 C         -33.954315      -93.971962      -28.997187
 C         -35.682644      -94.878227      -31.269699
 C         -33.776604      -93.483192      -30.437260
 C         -34.265644      -94.309944      -31.504450
 H         -36.996681      -95.445641      -29.700937
 H         -35.450737      -96.369499      -29.572172
 H         -33.640697      -93.268944      -28.215258
 H         -33.289597      -94.820473      -28.959602
 H         -36.524788      -94.247223      -31.609375
 H         -35.754040      -95.844109      -31.922749
 H         -32.739887      -93.187897      -30.702780
 H         -34.359230      -92.546600      -30.393156
 H         -34.115299      -93.940826      -32.474854
 H         -33.668461      -95.161186      -31.604485
