20
 generated by VMD
 C         -46.766346     -125.127731      -38.309227
 N         -47.634651     -124.858902      -37.573074
 H         -44.661617     -122.207222      -37.724892
 H         -45.918079     -125.264984      -38.905968
 C         -44.802711     -122.287056      -38.755737
 C         -43.481949     -122.636269      -39.523922
 C         -45.742512     -121.404495      -39.429161
 C         -43.859310     -123.162071      -40.890430
 C         -46.228413     -122.036758      -40.757153
 C         -44.925465     -122.414955      -41.620689
 H         -42.808315     -123.279068      -38.960430
 H         -42.965969     -121.646713      -39.687347
 H         -46.557724     -121.178001      -38.733711
 H         -45.264942     -120.481224      -39.610950
 H         -44.309254     -124.071960      -40.651833
 H         -42.930153     -123.418823      -41.411083
 H         -46.996410     -121.319931      -41.243000
 H         -46.930443     -122.975983      -40.407051
 H         -45.195004     -122.829102      -42.581936
 H         -44.470043     -121.424377      -41.875263
