20
 generated by VMD
 C         -60.602592     -172.191360      -55.274212
 N         -60.022827     -173.070190      -54.883881
 H         -62.797806     -170.566727      -57.293201
 H         -60.997124     -171.290482      -55.664692
 C         -63.275215     -169.644028      -57.123367
 C         -62.638607     -168.302231      -57.461857
 C         -64.765900     -169.942719      -57.199154
 C         -63.232304     -167.817627      -58.775795
 C         -65.310257     -169.368484      -58.568237
 C         -64.749207     -167.948166      -58.890575
 H         -61.510784     -168.434357      -57.553299
 H         -62.867989     -167.634277      -56.651825
 H         -64.955803     -171.028030      -57.253296
 H         -65.276337     -169.404053      -56.388252
 H         -62.763004     -168.343307      -59.639824
 H         -62.864269     -166.801666      -58.881260
 H         -66.424164     -169.335541      -58.423500
 H         -65.033966     -170.167557      -59.332638
 H         -65.045326     -167.681458      -59.937695
 H         -65.248840     -167.331436      -58.132797
