20
 generated by VMD
 C         -68.415535     -185.250534      -67.164131
 N         -67.660294     -186.106827      -66.960709
 H         -69.923447     -185.176270      -64.502510
 H         -69.113373     -184.410217      -67.359375
 C         -69.728127     -185.305923      -63.480770
 C         -70.813744     -185.084534      -62.523716
 C         -68.463814     -186.055084      -63.190456
 C         -70.383087     -185.382324      -61.133038
 C         -68.234985     -186.532349      -61.709705
 C         -69.572601     -186.626892      -60.945435
 H         -71.551498     -185.834061      -62.861824
 H         -71.164314     -184.057343      -62.802410
 H         -68.266586     -186.900436      -63.873936
 H         -67.570343     -185.345901      -63.319038
 H         -71.329475     -185.551575      -60.588085
 H         -69.816780     -184.432312      -60.792480
 H         -67.678055     -185.712204      -61.185356
 H         -67.508888     -187.369431      -61.771164
 H         -69.967720     -187.590439      -61.301964
 H         -69.477882     -186.964935      -59.944798
