20
 generated by VMD
 C         -46.663322     -124.684189      -37.826664
 N         -46.949944     -124.490288      -36.732838
 H         -44.871357     -122.691360      -37.722580
 H         -46.535892     -124.973206      -38.903358
 C         -44.830051     -122.378319      -38.830376
 C         -43.490765     -122.333885      -39.532940
 C         -45.903061     -121.502365      -39.373837
 C         -43.695095     -122.634041      -40.982063
 C         -46.153461     -121.758797      -40.872982
 C         -44.808102     -121.668686      -41.705063
 H         -42.800850     -123.070274      -39.140530
 H         -43.016315     -121.404579      -39.399647
 H         -46.803261     -121.800468      -38.934654
 H         -45.757263     -120.432152      -39.160004
 H         -43.823357     -123.647583      -41.159264
 H         -42.677860     -122.543381      -41.481064
 H         -46.851048     -121.005074      -41.333649
 H         -46.536636     -122.852097      -41.183968
 H         -44.937462     -122.091003      -42.735134
 H         -44.489571     -120.631065      -41.707882
