20
 generated by VMD
 C         -22.327255      -68.112617      -16.554869
 N         -21.710634      -68.181412      -15.572937
 H         -24.520134      -65.438339      -18.505880
 H         -23.152861      -68.080841      -17.225073
 C         -24.600708      -66.478722      -18.773418
 C         -23.984255      -67.061539      -20.002903
 C         -26.140680      -66.538689      -18.983814
 C         -24.503513      -68.478813      -20.408381
 C         -26.581352      -67.981819      -19.051329
 C         -25.983723      -68.542862      -20.331993
 H         -22.892187      -67.099365      -19.793470
 H         -24.147375      -66.417397      -20.809324
 H         -26.589743      -66.097733      -18.093227
 H         -26.391434      -65.929337      -19.950420
 H         -23.973303      -69.159378      -19.678703
 H         -24.173555      -68.781548      -21.479738
 H         -27.655420      -68.140923      -19.264408
 H         -26.302292      -68.586433      -18.126268
 H         -26.428600      -69.535187      -20.404810
 H         -26.352909      -67.999832      -21.202662
