20
 generated by VMD
 C         -60.926125     -154.830536      -51.363419
 N         -60.917561     -154.046814      -52.278191
 H         -57.474194     -153.977219      -53.014904
 H         -60.887600     -155.507889      -50.488430
 C         -56.741325     -153.698868      -52.257763
 C         -57.182102     -153.945267      -50.798340
 C         -55.523346     -152.901230      -52.484325
 C         -56.154140     -154.355667      -49.807503
 C         -54.427937     -153.419891      -51.425724
 C         -54.971050     -153.390747      -49.997101
 H         -57.853466     -154.737045      -50.875462
 H         -57.792465     -153.115891      -50.593544
 H         -55.084743     -152.853592      -53.526672
 H         -55.692108     -151.829361      -52.258106
 H         -55.796478     -155.435547      -49.908520
 H         -56.623512     -154.435822      -48.735317
 H         -53.575386     -152.803604      -51.596378
 H         -54.129848     -154.499146      -51.445049
 H         -54.128563     -153.397217      -49.313057
 H         -55.364052     -152.411514      -49.673019
