20
 generated by VMD
 C         -31.943045      -76.201935      -24.410187
 N         -31.458984      -76.621132      -25.397678
 H         -29.637201      -77.706741      -22.641939
 H         -32.030552      -75.729095      -23.316652
 C         -28.616526      -77.910721      -22.259604
 C         -27.602434      -78.078445      -23.311029
 C         -28.384598      -78.365791      -20.860119
 C         -26.175348      -78.056580      -22.754864
 C         -26.907112      -78.454079      -20.365263
 C         -25.983318      -78.773224      -21.467953
 H         -27.650187      -77.244545      -23.962309
 H         -27.823454      -79.066956      -23.657524
 H         -28.906679      -77.849358      -20.101593
 H         -28.664642      -79.499893      -20.912191
 H         -25.829561      -76.991165      -22.686502
 H         -25.442650      -78.445221      -23.471581
 H         -26.759106      -79.136833      -19.524334
 H         -26.684984      -77.543747      -19.977558
 H         -25.029902      -78.651917      -21.046787
 H         -25.954124      -79.870598      -21.638142
