20
 generated by VMD
 C         -28.502472      -86.841347      -26.901842
 N         -27.551390      -87.118279      -26.363375
 H         -31.073566      -88.475235      -25.328196
 H         -29.324924      -86.564919      -27.595688
 C         -32.045528      -88.116043      -25.625423
 C         -33.203541      -88.144737      -24.694294
 C         -32.201618      -88.077362      -27.069105
 C         -34.480751      -87.703468      -25.277983
 C         -33.566235      -87.389244      -27.607296
 C         -34.674194      -87.965118      -26.794020
 H         -33.075527      -87.329933      -23.969986
 H         -33.248196      -89.217003      -24.328081
 H         -31.391939      -87.448837      -27.470716
 H         -32.164864      -89.077904      -27.553785
 H         -34.749245      -86.685280      -24.972904
 H         -35.278992      -88.197594      -24.706865
 H         -33.686790      -87.519173      -28.716618
 H         -33.348389      -86.316750      -27.517328
 H         -35.701412      -87.550385      -26.958828
 H         -34.719547      -89.154831      -26.955210
