20
 generated by VMD
 C         -13.741023      -42.848076       -5.947467
 N         -12.876801      -43.229267       -6.564198
 H         -14.995656      -45.141277       -8.811096
 H         -14.454082      -43.742798       -9.818172
 C         -15.272549      -44.452824       -9.716647
 C         -16.464867      -43.598873       -9.328920
 C         -15.331607      -45.167770      -11.093099
 C         -16.888626      -42.685661      -10.488439
 C         -15.805952      -44.258877      -12.255546
 C         -17.068487      -43.580475      -11.722125
 H         -16.092091      -42.947617       -8.542389
 H         -17.293163      -44.184185       -9.023930
 H         -14.318629      -45.558437      -11.352530
 H         -16.107901      -45.944859      -10.891660
 H         -16.125774      -41.931461      -10.673108
 H         -17.813303      -42.169525      -10.203293
 H         -16.137339      -44.797966      -13.198067
 H         -14.995172      -43.655525      -12.535730
 H         -17.607557      -43.008072      -12.564097
 H         -17.806517      -44.395851      -11.480137
