20
 generated by VMD
 C         -48.429752     -135.730270      -46.294483
 N         -47.571312     -135.905075      -45.599350
 H         -51.860626     -134.821411      -45.916279
 H         -49.077709     -135.625626      -47.163620
 C         -51.833237     -135.730179      -45.141941
 C         -52.447075     -137.130707      -45.526043
 C         -51.235809     -135.601044      -43.879902
 C         -51.597755     -138.259109      -45.066883
 C         -50.431751     -136.791458      -43.336613
 C         -51.115917     -138.201691      -43.680367
 H         -52.456753     -137.174026      -46.677204
 H         -53.468922     -137.184982      -45.259544
 H         -50.559437     -134.724991      -43.754944
 H         -52.098286     -135.397919      -43.169090
 H         -50.755318     -138.315445      -45.779766
 H         -52.225624     -139.158279      -45.171535
 H         -50.206707     -136.675613      -42.235355
 H         -49.508842     -136.752182      -43.913170
 H         -50.346203     -139.077484      -43.572868
 H         -51.987602     -138.313690      -42.894566
