20
 generated by VMD
 C         -47.590633     -138.197861      -45.783070
 N         -47.190807     -137.942139      -46.893085
 H         -50.540848     -137.460083      -44.775368
 H         -47.877369     -138.125397      -44.716213
 C         -51.367996     -138.151459      -44.970684
 C         -51.437222     -138.894943      -46.264694
 C         -52.662884     -137.870850      -44.116459
 C         -52.642124     -139.829819      -46.426750
 C         -53.649788     -139.000244      -44.271420
 C         -53.863804     -139.245117      -45.716484
 H         -50.482624     -139.494324      -46.391144
 H         -51.450829     -138.156509      -47.033730
 H         -52.294804     -137.861679      -43.068180
 H         -52.993214     -136.848633      -44.215611
 H         -52.545025     -140.818268      -45.903633
 H         -52.683868     -140.122070      -47.497318
 H         -54.655735     -138.709000      -43.962643
 H         -53.537788     -139.850449      -43.709599
 H         -54.791580     -140.002396      -45.956146
 H         -54.162914     -138.311935      -46.276463
