20
 generated by VMD
 C         -68.689842     -185.392593      -66.893021
 N         -67.668182     -184.875885      -66.685593
 H         -69.159088     -188.047195      -64.932762
 H         -69.564606     -186.027008      -67.081711
 C         -69.482368     -187.653717      -63.939465
 C         -69.635696     -186.123444      -63.831543
 C         -70.131050     -188.444977      -62.792175
 C         -69.570923     -185.621536      -62.315369
 C         -69.867668     -187.854813      -61.487934
 C         -70.428932     -186.502258      -61.470970
 H         -70.645370     -185.851624      -64.116348
 H         -68.993393     -185.501373      -64.415970
 H         -71.193199     -188.580368      -63.001923
 H         -69.723549     -189.509033      -62.858044
 H         -69.884567     -184.583435      -62.262768
 H         -68.543320     -185.571472      -61.809692
 H         -68.812561     -187.724060      -61.424458
 H         -70.288818     -188.492172      -60.771828
 H         -71.544014     -186.558884      -61.685688
 H         -70.328972     -185.874039      -60.527809
