20
 generated by VMD
 C         -72.744392     -198.647430      -65.711304
 N         -73.733391     -198.980438      -66.208420
 H         -70.930473     -196.079910      -67.589592
 H         -71.981262     -198.446732      -65.004868
 C         -71.976845     -196.260269      -67.780891
 C         -72.931244     -195.397888      -66.886131
 C         -72.434944     -196.979721      -69.027481
 C         -74.303467     -195.229446      -67.612694
 C         -73.884338     -197.374084      -69.063728
 C         -74.856522     -196.617783      -68.107452
 H         -72.590523     -194.338196      -66.763794
 H         -73.038628     -196.018173      -65.936844
 H         -72.271408     -196.241028      -69.872284
 H         -71.754639     -197.805038      -69.218513
 H         -74.271423     -194.459427      -68.365776
 H         -74.996330     -194.837433      -66.808495
 H         -73.776611     -198.454697      -68.865189
 H         -74.302811     -197.239120      -70.038391
 H         -75.699577     -196.561417      -68.721519
 H         -75.216888     -197.412308      -67.289093
