20
 generated by VMD
 C          -6.846220      -23.310555        2.995300
 N          -6.870894      -22.620365        2.113239
 H          -7.936557      -22.747904       -0.618423
 H          -8.964058      -22.291172       -1.956687
 C          -7.969069      -22.232977       -1.552425
 C          -7.111763      -23.019033       -2.596587
 C          -7.583871      -20.768202       -1.386279
 C          -7.024201      -22.302248       -4.004026
 C          -7.532084      -20.090328       -2.738762
 C          -6.588908      -20.839781       -3.739286
 H          -7.443954      -24.042036       -2.592568
 H          -6.032562      -23.110785       -2.245389
 H          -8.202662      -20.165668       -0.743207
 H          -6.543353      -20.763390       -1.002240
 H          -7.950311      -22.241076       -4.531229
 H          -6.377975      -22.842291       -4.670799
 H          -7.166206      -19.071257       -2.661856
 H          -8.538029      -20.067364       -3.143325
 H          -6.599751      -20.298946       -4.680782
 H          -5.589293      -20.720049       -3.340919
