20
 generated by VMD
 C         -67.197739     -189.761520      -67.069206
 N         -66.941689     -190.110870      -65.974510
 H         -70.478012     -190.782394      -66.101433
 H         -67.276993     -189.217026      -68.045273
 C         -71.188805     -190.351395      -65.414330
 C         -72.158592     -191.117661      -64.712708
 C         -70.508926     -189.221680      -64.680305
 C         -73.135330     -190.115112      -64.222481
 C         -71.404968     -188.433807      -63.782883
 C         -72.603119     -189.184280      -63.171871
 H         -71.859924     -191.778214      -63.946774
 H         -72.530975     -191.908157      -65.349884
 H         -69.676147     -189.578674      -64.099304
 H         -69.920448     -188.458588      -65.334419
 H         -74.044006     -190.602921      -63.919563
 H         -73.588753     -189.481720      -65.062057
 H         -71.820915     -187.547623      -64.388412
 H         -70.890259     -187.953598      -62.950115
 H         -72.270859     -189.785873      -62.331802
 H         -73.391876     -188.379883      -62.901070
