20
 generated by VMD
 C         -49.531307     -131.835495      -46.457733
 N         -50.257923     -132.391266      -47.247932
 H         -47.833076     -133.661926      -44.553677
 H         -49.176945     -131.256882      -45.636257
 C         -48.357113     -134.006073      -43.704403
 C         -49.215435     -135.277420      -43.973354
 C         -49.111351     -133.056564      -42.832420
 C         -49.685272     -135.908600      -42.661961
 C         -49.588474     -133.623886      -41.534882
 C         -50.459179     -134.915909      -41.833843
 H         -48.588852     -135.973999      -44.445816
 H         -50.027809     -134.928436      -44.695335
 H         -48.663567     -132.156158      -42.626568
 H         -50.023312     -132.886337      -43.439548
 H         -48.801102     -136.375259      -42.166634
 H         -50.341652     -136.826355      -42.780308
 H         -50.179363     -132.759644      -40.974289
 H         -48.819901     -133.968918      -40.813400
 H         -50.749420     -135.415955      -40.818066
 H         -51.328541     -134.658524      -42.583630
