20
 generated by VMD
 C         -32.540707      -92.892921      -25.864513
 N         -32.612236      -94.056702      -25.613571
 H         -33.713982      -94.882347      -28.831963
 H         -32.641727      -91.910950      -26.126060
 C         -34.273052      -93.970131      -29.078989
 C         -35.368443      -93.469025      -28.156944
 C         -33.682301      -93.126312      -30.175308
 C         -35.202942      -91.991837      -27.846874
 C         -33.462387      -91.694077      -29.846945
 C         -34.764404      -91.254379      -29.093191
 H         -35.272800      -94.145195      -27.350832
 H         -36.277302      -93.668282      -28.714991
 H         -32.829506      -93.604340      -30.704832
 H         -34.498978      -93.143387      -30.902689
 H         -34.490654      -91.763283      -27.067400
 H         -36.199604      -91.614616      -27.433840
 H         -33.380939      -91.017448      -30.673450
 H         -32.508881      -91.671921      -29.228373
 H         -34.702995      -90.173943      -28.891062
 H         -35.569054      -91.135643      -29.811636
