20
 generated by VMD
 C         -64.361549     -175.182205      -55.930038
 N         -63.490894     -175.467926      -56.675629
 H         -65.380058     -174.008575      -58.265175
 H         -65.180130     -174.832718      -55.280628
 C         -65.031509     -173.052475      -58.683865
 C         -65.575752     -171.741837      -58.239841
 C         -64.281456     -173.215729      -60.037380
 C         -64.401680     -170.783615      -58.273853
 C         -63.147511     -172.195572      -60.023479
 C         -63.677650     -170.883148      -59.546772
 H         -65.966331     -171.766312      -57.218277
 H         -66.422180     -171.438065      -58.945621
 H         -63.738541     -174.234955      -60.016926
 H         -64.921997     -172.974030      -60.937099
 H         -63.820339     -170.791656      -57.403328
 H         -64.870087     -169.834091      -58.299843
 H         -62.665936     -172.219955      -60.996490
 H         -62.263168     -172.499161      -59.364498
 H         -62.816818     -170.270767      -59.450672
 H         -64.244522     -170.347290      -60.321209
