20
 generated by VMD
 C         -70.063080     -182.916229      -65.968178
 N         -71.134071     -183.302795      -65.643120
 H         -68.014702     -182.710144      -63.088516
 H         -69.057503     -182.462051      -66.185822
 C         -67.486969     -182.448624      -62.148727
 C         -67.632988     -183.352478      -60.994022
 C         -67.047363     -181.109863      -61.913212
 C         -66.659622     -183.147293      -59.912544
 C         -66.205421     -180.796631      -60.633404
 C         -66.760048     -181.607086      -59.412605
 H         -67.556320     -184.364822      -61.305088
 H         -68.729805     -183.418503      -60.768452
 H         -66.456833     -180.730042      -62.787594
 H         -67.956558     -180.427078      -61.830612
 H         -65.650436     -183.367111      -60.335770
 H         -66.657196     -183.678238      -58.894783
 H         -66.148270     -179.701920      -60.413723
 H         -65.236420     -181.081924      -61.009098
 H         -66.111229     -181.327301      -58.500675
 H         -67.816956     -181.331635      -59.200329
