20
 generated by VMD
 C         -27.539604      -86.511696      -26.276028
 N         -28.477175      -86.501930      -26.971272
 H         -30.951530      -86.335167      -25.356035
 H         -26.686972      -86.388702      -25.703613
 C         -31.834454      -86.940781      -25.584471
 C         -32.812469      -87.408463      -24.467161
 C         -32.118637      -87.318481      -26.986198
 C         -34.316116      -87.470734      -25.015844
 C         -33.530224      -87.581604      -27.403389
 C         -34.372116      -88.140335      -26.357651
 H         -32.779381      -86.700256      -23.579638
 H         -32.503143      -88.324486      -24.099194
 H         -31.649321      -86.598030      -27.730993
 H         -31.559443      -88.231003      -27.195166
 H         -34.618996      -86.367142      -25.166430
 H         -35.042339      -88.086525      -24.311630
 H         -33.504810      -88.257957      -28.196960
 H         -33.909668      -86.583977      -27.735540
 H         -35.376545      -88.159714      -26.750910
 H         -34.159733      -89.165314      -26.424780
