20
 generated by VMD
 C         -41.352077     -102.345856      -35.412014
 N         -41.533646     -103.373344      -35.927757
 H         -39.323032     -105.243607      -33.680679
 H         -40.991028     -101.406609      -34.911545
 C         -38.659950     -105.121170      -32.923813
 C         -37.302254     -104.408607      -32.830090
 C         -38.934391     -106.212845      -31.871418
 C         -36.465992     -104.591499      -31.518780
 C         -37.925949     -106.359558      -30.786495
 C         -36.501438     -106.080238      -31.192892
 H         -37.467587     -103.339363      -32.933323
 H         -36.778625     -104.771851      -33.670319
 H         -39.920864     -106.130417      -31.500732
 H         -38.962963     -107.075966      -32.547581
 H         -36.886398     -103.991943      -30.727900
 H         -35.470669     -104.342697      -31.801413
 H         -37.936153     -107.334091      -30.229130
 H         -38.208412     -105.683113      -30.040735
 H         -35.892025     -106.209023      -30.202553
 H         -36.068771     -106.745827      -31.894920
