20
 generated by VMD
 C         -58.519764     -152.033157      -49.436016
 N         -59.629654     -152.196091      -49.337414
 H         -56.069626     -149.818634      -48.131271
 H         -57.507141     -151.915771      -49.630669
 C         -55.241440     -149.656860      -48.752899
 C         -54.327984     -150.686600      -49.437111
 C         -54.837460     -148.201294      -48.911419
 C         -54.158283     -150.434204      -50.982697
 C         -54.797207     -147.997742      -50.465446
 C         -53.797672     -148.948318      -51.269447
 H         -54.706905     -151.734238      -49.184597
 H         -53.275513     -150.775864      -48.930676
 H         -55.604916     -147.582062      -48.572147
 H         -53.862309     -147.948486      -48.536312
 H         -55.169479     -150.504486      -51.341064
 H         -53.609016     -151.276428      -51.437832
 H         -54.531048     -146.937820      -50.610710
 H         -55.737705     -148.211258      -50.934956
 H         -53.805885     -148.688873      -52.333828
 H         -52.810566     -148.762314      -50.892342
