20
 generated by VMD
 C         -49.679840     -131.809448      -46.558559
 N         -50.093941     -132.605194      -47.381317
 H         -48.100792     -132.560638      -44.259987
 H         -49.119995     -131.150406      -45.826546
 C         -48.635464     -133.213409      -43.656666
 C         -49.478073     -134.435898      -44.024654
 C         -49.070053     -132.603546      -42.319630
 C         -49.497177     -135.497513      -42.825787
 C         -49.058784     -133.618759      -41.176807
 C         -49.852707     -134.813766      -41.440647
 H         -49.110085     -134.779938      -44.960735
 H         -50.528362     -134.146744      -44.244923
 H         -48.323513     -131.865692      -42.104870
 H         -50.082947     -132.035797      -42.392178
 H         -48.492855     -136.014954      -42.757183
 H         -50.266705     -136.183899      -43.237900
 H         -49.534031     -133.200470      -40.232803
 H         -48.033554     -133.850845      -40.950626
 H         -49.776886     -135.555023      -40.686543
 H         -50.948334     -134.711578      -41.353645
