20
 generated by VMD
 C         -31.462616      -77.871284      -26.414576
 N         -31.698334      -77.992897      -27.534670
 H         -29.279776      -79.027962      -23.813440
 H         -31.034899      -78.004677      -25.370146
 C         -29.033884      -79.933098      -23.124468
 C         -27.541327      -80.115265      -23.021772
 C         -29.944323      -81.062164      -22.881897
 C         -27.120983      -80.851219      -21.823320
 C         -29.499659      -81.806046      -21.625473
 C         -28.003099      -82.186111      -21.742884
 H         -26.820919      -79.222557      -23.113695
 H         -27.290722      -80.708626      -23.944439
 H         -31.055374      -80.758392      -22.837952
 H         -29.903385      -81.593811      -23.774975
 H         -27.233124      -80.144867      -21.008307
 H         -26.075642      -81.037094      -21.853886
 H         -30.127752      -82.690773      -21.524530
 H         -29.671438      -81.135002      -20.809752
 H         -27.882893      -82.734756      -20.791126
 H         -27.770586      -82.886421      -22.675749
