20
 generated by VMD
 C         -47.432884     -138.301163      -45.757278
 N         -47.141899     -138.114319      -46.816044
 H         -50.483227     -137.953461      -44.732216
 H         -47.807430     -138.502350      -44.750301
 C         -51.461178     -138.364532      -44.994987
 C         -51.534111     -138.884293      -46.398479
 C         -52.621284     -138.037445      -44.084011
 C         -52.663643     -139.965836      -46.501568
 C         -53.874218     -138.983063      -44.376186
 C         -54.018471     -139.392990      -45.867954
 H         -50.660629     -139.399384      -46.791840
 H         -51.723747     -138.027603      -47.055500
 H         -52.310863     -138.032181      -43.042397
 H         -52.987492     -137.130844      -44.468369
 H         -52.356571     -140.883530      -45.912617
 H         -52.737087     -140.260056      -47.586620
 H         -54.851456     -138.556473      -44.054249
 H         -53.650711     -139.880783      -43.823845
 H         -54.881840     -140.215164      -45.714436
 H         -54.394329     -138.450058      -46.317566
