20
 generated by VMD
 C         -12.713095      -27.586271       -1.697969
 N         -11.724327      -27.130615       -1.892018
 H         -10.409881      -25.949154       -4.493028
 H          -8.956398      -25.734037       -5.430947
 C          -9.348525      -26.211882       -4.515109
 C          -8.990775      -27.672897       -4.483988
 C          -8.679214      -25.402233       -3.374978
 C          -7.537842      -28.028204       -4.177915
 C          -7.205276      -25.759556       -3.286885
 C          -7.002973      -27.235966       -3.000964
 H          -9.280759      -28.207909       -5.336675
 H          -9.673338      -28.003132       -3.664195
 H          -8.811972      -24.339834       -3.559444
 H          -9.132622      -25.718105       -2.409630
 H          -6.949702      -27.851982       -5.080474
 H          -7.394280      -29.103662       -4.024169
 H          -6.631129      -25.165920       -2.532171
 H          -6.594826      -25.565777       -4.184865
 H          -5.972580      -27.443966       -2.739321
 H          -7.526725      -27.512072       -2.051031
