20
 generated by VMD
 C         -33.265629      -96.712189      -25.345528
 N         -32.672569      -96.597809      -24.347115
 H         -34.573612      -93.871849      -27.539198
 H         -33.713551      -96.962517      -26.367998
 C         -34.720963      -93.402122      -28.535036
 C         -36.096954      -93.491409      -29.088585
 C         -33.438686      -93.150581      -29.293390
 C         -36.253288      -92.834030      -30.404135
 C         -33.828232      -92.347076      -30.519754
 C         -35.043415      -92.798859      -31.324551
 H         -36.768742      -93.049034      -28.305655
 H         -36.391693      -94.545738      -29.193594
 H         -32.712399      -92.517357      -28.769985
 H         -32.934685      -94.115227      -29.529509
 H         -36.440559      -91.712585      -30.262344
 H         -37.101032      -93.061600      -30.982235
 H         -32.963856      -92.321457      -31.213366
 H         -33.947514      -91.353233      -30.137154
 H         -35.100838      -92.246826      -32.326260
 H         -34.639683      -93.811073      -31.655842
