20
 generated by VMD
 C         -39.906540     -116.811920      -34.645023
 N         -39.425560     -115.778732      -34.507076
 H         -41.515903     -116.455894      -37.958679
 H         -40.617592     -117.663338      -34.816189
 C         -42.469986     -116.100937      -37.871910
 C         -43.174026     -115.754601      -39.147312
 C         -43.239826     -115.889816      -36.548248
 C         -44.443005     -116.580070      -39.186203
 C         -44.603970     -116.557144      -36.652615
 C         -45.385979     -116.404846      -37.996433
 H         -42.510750     -115.804794      -40.040764
 H         -43.622543     -114.724678      -39.139019
 H         -42.595806     -116.397263      -35.809151
 H         -43.249733     -114.811035      -36.311722
 H         -44.154606     -117.627205      -39.275242
 H         -44.880749     -116.372467      -40.124737
 H         -45.191704     -116.111694      -35.775970
 H         -44.388100     -117.669792      -36.465183
 H         -46.101757     -117.124977      -38.088097
 H         -46.008522     -115.483353      -38.071342
