20
 generated by VMD
 C         -68.534767     -185.422501      -67.133881
 N         -67.742500     -184.578979      -67.189873
 H         -68.993431     -188.491928      -64.700806
 H         -69.313980     -186.238586      -67.078873
 C         -69.306793     -188.006409      -63.721344
 C         -69.381607     -186.468262      -63.714001
 C         -70.372246     -188.714828      -62.820724
 C         -69.434029     -185.858459      -62.308334
 C         -70.534821     -188.065689      -61.459976
 C         -70.579285     -186.540619      -61.499901
 H         -70.261879     -186.129898      -64.302330
 H         -68.545296     -186.056381      -64.361900
 H         -71.282768     -188.595032      -63.393524
 H         -70.339470     -189.756287      -62.791420
 H         -69.441025     -184.760437      -62.391712
 H         -68.571648     -186.118851      -61.729130
 H         -69.644562     -188.212006      -60.858292
 H         -71.496017     -188.461746      -61.069954
 H         -71.566383     -186.238327      -61.973873
 H         -70.440186     -186.282211      -60.350346
