20
 generated by VMD
 C         -39.435986     -105.569244      -37.175854
 N         -40.591507     -105.504219      -37.116261
 H         -39.276531     -107.691162      -35.082813
 H         -38.381779     -105.820862      -37.159981
 C         -39.527420     -108.365005      -34.305477
 C         -38.367226     -108.698944      -33.348743
 C         -40.570576     -109.445335      -34.267891
 C         -38.977047     -108.772163      -31.939949
 C         -41.113285     -109.429024      -32.783924
 C         -40.149883     -109.698326      -31.780596
 H         -37.596409     -107.957367      -33.402477
 H         -37.950638     -109.660400      -33.594330
 H         -41.410076     -109.406578      -35.088749
 H         -40.263660     -110.502411      -34.307606
 H         -39.060028     -107.678108      -31.633661
 H         -38.123123     -109.225471      -31.332197
 H         -41.875717     -110.160576      -32.647987
 H         -41.775791     -108.565392      -32.653736
 H         -40.556076     -109.596382      -30.800337
 H         -39.745819     -110.757393      -31.839394
