20
 generated by VMD
 C         -50.326256     -145.206589      -45.112705
 N         -49.998032     -144.866058      -44.035141
 H         -53.143978     -143.513199      -45.952080
 H         -50.505726     -145.413437      -46.166447
 C         -53.477768     -143.047897      -46.852978
 C         -52.519478     -142.886795      -48.060345
 C         -54.643017     -142.156158      -46.921879
 C         -53.326046     -143.129898      -49.319962
 C         -55.448055     -142.264862      -48.193619
 C         -54.534481     -142.208496      -49.370522
 H         -51.549122     -143.545334      -48.140213
 H         -52.173374     -141.838760      -48.081329
 H         -55.390881     -142.382278      -46.116741
 H         -54.442593     -141.058792      -46.741890
 H         -53.582169     -144.275162      -49.247738
 H         -52.831699     -143.008240      -50.345333
 H         -56.042786     -141.295120      -48.185783
 H         -56.136177     -143.100204      -48.302746
 H         -55.243774     -142.534805      -50.227840
 H         -54.254116     -141.101410      -49.608959
