20
 generated by VMD
 C         -50.019142     -142.948090      -45.106026
 N         -48.993713     -143.282639      -45.424747
 H         -51.769150     -140.634995      -45.509087
 H         -51.047314     -142.781677      -44.934368
 C         -52.608372     -140.906860      -46.173988
 C         -52.112156     -141.038147      -47.552834
 C         -54.093254     -140.667496      -46.002708
 C         -52.958694     -142.122055      -48.396774
 C         -54.887474     -141.702972      -46.822979
 C         -54.392262     -141.910583      -48.304104
 H         -51.050842     -141.477219      -47.619949
 H         -52.034775     -139.994202      -48.007908
 H         -54.303230     -140.703506      -44.894016
 H         -54.483471     -139.670578      -46.479828
 H         -52.601925     -143.133224      -48.001595
 H         -52.639168     -142.107346      -49.483395
 H         -55.964069     -141.521423      -46.673325
 H         -54.707649     -142.718369      -46.574894
 H         -55.044506     -142.684555      -48.838955
 H         -54.661633     -140.988403      -48.931973
