20
 generated by VMD
 C         -78.645149     -204.409561      -70.612450
 N         -79.646149     -204.105713      -70.188736
 H         -76.281113     -203.045105      -67.884926
 H         -77.710464     -204.697281      -71.151649
 C         -75.530159     -202.725983      -68.584251
 C         -75.788506     -201.615570      -69.572723
 C         -74.291824     -203.567963      -68.763023
 C         -74.812096     -201.546783      -70.748169
 C         -73.026505     -202.849991      -69.339111
 C         -73.321739     -201.759079      -70.388916
 H         -75.831902     -200.716507      -68.956573
 H         -76.818695     -201.693390      -70.027222
 H         -73.938454     -203.971115      -67.776375
 H         -74.585579     -204.450623      -69.519348
 H         -74.933380     -200.601868      -71.334007
 H         -75.011734     -202.381699      -71.475098
 H         -72.448807     -203.574493      -69.802544
 H         -72.473114     -202.466019      -68.497086
 H         -72.877426     -200.824738      -69.966370
 H         -72.790398     -202.058044      -71.300003
