20
 generated by VMD
 C         -29.318356      -74.563492      -19.528673
 N         -30.327219      -74.386566      -20.011019
 H         -25.659033      -73.194939      -18.712286
 H         -28.244463      -74.877960      -19.227243
 C         -25.692526      -73.300735      -19.820089
 C         -25.352343      -74.483009      -20.698067
 C         -25.523802      -72.042953      -20.513102
 C         -26.042393      -74.313263      -22.127008
 C         -26.119396      -72.031067      -21.909042
 C         -25.574932      -73.033714      -22.819107
 H         -25.716228      -75.483879      -20.148567
 H         -24.265347      -74.581055      -20.746996
 H         -26.053335      -71.260147      -19.890594
 H         -24.554457      -71.569397      -20.627037
 H         -27.145952      -74.353371      -22.082186
 H         -25.765388      -75.183395      -22.733856
 H         -25.743267      -71.104813      -22.390020
 H         -27.167398      -72.036209      -21.864075
 H         -26.006161      -72.973068      -23.907938
 H         -24.476177      -72.953476      -22.914440
