20
 generated by VMD
 C         -59.522240     -157.800690      -56.519482
 N         -58.946209     -158.723877      -56.986271
 H         -60.694786     -157.831543      -52.772129
 H         -59.997272     -156.951614      -56.067616
 C         -59.961449     -158.624832      -52.691860
 C         -58.521358     -158.411118      -52.404415
 C         -60.453426     -160.023956      -53.109642
 C         -57.926422     -159.544830      -51.541122
 C         -59.813889     -160.921249      -52.116726
 C         -58.345570     -160.897873      -51.930275
 H         -58.450375     -157.544083      -51.633312
 H         -57.851475     -158.330292      -53.267673
 H         -61.578518     -160.230713      -53.046204
 H         -60.226082     -160.231995      -54.150040
 H         -58.187359     -159.399551      -50.478336
 H         -56.744530     -159.545517      -51.518772
 H         -60.070984     -161.957001      -52.452385
 H         -60.289547     -160.835846      -51.131832
 H         -58.093956     -161.688034      -51.259041
 H         -57.832165     -161.233826      -52.968037
