20
 generated by VMD
 C         -26.836918      -71.737770      -17.590067
 N         -26.932718      -72.827019      -17.202940
 H         -24.312710      -69.885918      -18.742332
 H         -26.899122      -70.795380      -17.901314
 C         -24.854752      -70.305840      -19.615940
 C         -24.174316      -71.377625      -20.361605
 C         -25.862535      -69.306129      -20.241283
 C         -25.136181      -72.041145      -21.378870
 C         -26.759754      -70.003532      -21.350914
 C         -25.817745      -71.025299      -22.231226
 H         -23.785559      -72.254669      -19.857553
 H         -23.368860      -70.855949      -20.835320
 H         -26.456158      -68.862686      -19.461323
 H         -25.219910      -68.619827      -20.809294
 H         -25.880863      -72.595993      -20.727713
 H         -24.683641      -72.790169      -22.050291
 H         -27.335901      -69.361374      -21.990166
 H         -27.429104      -70.628120      -20.792084
 H         -26.483025      -71.676933      -22.876503
 H         -25.110487      -70.332977      -22.835953
