20
 generated by VMD
 C         -48.442928     -135.920074      -46.118462
 N         -47.429733     -136.171524      -45.729584
 H         -51.981049     -135.064835      -45.958145
 H         -49.281929     -135.732864      -46.713253
 C         -51.672218     -136.025314      -45.407001
 C         -52.325966     -137.265335      -45.892731
 C         -51.255585     -135.935425      -43.914471
 C         -51.744957     -138.534790      -45.214684
 C         -50.786381     -137.223999      -43.405960
 C         -51.735832     -138.420761      -43.678040
 H         -52.123413     -137.435333      -46.910511
 H         -53.436127     -137.063202      -45.760578
 H         -50.629856     -135.064835      -43.765301
 H         -52.221863     -135.710373      -43.467197
 H         -50.736389     -138.798859      -45.466038
 H         -52.285046     -139.358093      -45.556293
 H         -50.656048     -137.218552      -42.380981
 H         -49.767609     -137.453964      -43.842720
 H         -51.282101     -139.428085      -43.176708
 H         -52.805603     -138.096924      -43.373447
