20
 generated by VMD
 C         -70.168030     -198.544678      -64.213913
 N         -69.953674     -198.248337      -65.320648
 H         -72.875824     -196.671112      -66.473419
 H         -70.183388     -198.957352      -63.225307
 C         -73.511070     -195.888138      -66.916847
 C         -73.265800     -194.429428      -66.476837
 C         -74.403923     -196.213730      -68.066940
 C         -73.156586     -193.368454      -67.676559
 C         -74.854698     -194.889877      -68.824448
 C         -73.667252     -193.959793      -69.032326
 H         -72.318871     -194.293991      -65.963486
 H         -74.125313     -194.104141      -65.859703
 H         -73.942650     -196.822922      -68.840149
 H         -75.313583     -196.755234      -67.672882
 H         -72.117882     -193.031540      -67.749786
 H         -73.818031     -192.519913      -67.394562
 H         -75.632439     -194.420807      -68.191475
 H         -75.360756     -195.024750      -69.802147
 H         -72.846657     -194.444122      -69.442398
 H         -74.000908     -193.079147      -69.712357
