20
 generated by VMD
 C         -61.249722     -156.151810      -55.059196
 N         -60.347191     -155.752701      -55.582676
 H         -59.682709     -156.395935      -51.791321
 H         -62.062912     -156.699570      -54.590469
 C         -58.620197     -156.408325      -51.469143
 C         -57.862213     -155.135056      -51.155582
 C         -57.809528     -157.616531      -51.924114
 C         -56.542805     -155.435989      -50.452023
 C         -56.452732     -157.887573      -51.281281
 C         -55.698120     -156.631165      -51.245499
 H         -58.390812     -154.454758      -50.531460
 H         -57.648357     -154.579315      -52.098328
 H         -58.437847     -158.455933      -51.808361
 H         -57.690208     -157.516754      -53.027782
 H         -56.748943     -155.796417      -49.336082
 H         -55.872494     -154.608170      -50.180527
 H         -55.944878     -158.648758      -51.796928
 H         -56.657204     -158.410538      -50.291615
 H         -54.746716     -156.827408      -50.704105
 H         -55.470921     -156.293900      -52.238186
