20
 generated by VMD
 C         -20.463280      -61.492771      -17.008003
 N         -19.368328      -61.082569      -17.213314
 H         -21.724823      -65.147369      -17.009132
 H         -21.489912      -61.672001      -16.769117
 C         -22.798462      -64.863388      -17.102335
 C         -22.980730      -64.250374      -18.437855
 C         -23.772118      -65.121307      -16.010853
 C         -24.462883      -64.587936      -18.815088
 C         -25.138445      -65.426071      -16.452198
 C         -25.472746      -64.548996      -17.617935
 H         -22.256670      -64.639313      -19.193136
 H         -22.931553      -63.087086      -18.238934
 H         -23.546801      -65.944672      -15.383438
 H         -23.830524      -64.207146      -15.283891
 H         -24.558035      -65.604652      -19.236814
 H         -24.930277      -63.974792      -19.557125
 H         -25.886580      -65.531380      -15.678862
 H         -25.164635      -66.495766      -16.777786
 H         -26.442589      -64.810799      -17.920990
 H         -25.671181      -63.472961      -17.384300
