20
 generated by VMD
 C         -50.707253     -127.702225      -40.928062
 N         -51.358250     -128.363068      -41.590008
 H         -47.619091     -127.726929      -41.213696
 H         -50.347656     -127.133430      -40.097031
 C         -46.684593     -127.165359      -40.903698
 C         -45.490177     -127.542740      -40.108372
 C         -46.807697     -125.615967      -41.254761
 C         -44.161316     -126.940559      -40.711353
 C         -45.504150     -125.110352      -41.885300
 C         -44.254364     -125.502762      -41.060627
 H         -45.359524     -128.602768      -40.015503
 H         -45.498661     -127.026505      -39.073612
 H         -47.666016     -125.333855      -41.892166
 H         -46.992943     -125.070450      -40.386379
 H         -43.931946     -127.553368      -41.571003
 H         -43.402924     -126.975838      -39.920273
 H         -45.475204     -124.048729      -41.822102
 H         -45.226017     -125.312828      -42.847824
 H         -43.273926     -125.160561      -41.521511
 H         -44.257519     -124.959541      -40.084091
