20
 generated by VMD
 C         -61.380318     -172.331192      -54.990910
 N         -60.429054     -173.038574      -55.120697
 H         -62.238495     -170.733566      -58.299992
 H         -62.140465     -171.526520      -55.063156
 C         -62.927719     -170.063736      -57.717472
 C         -62.568405     -168.519394      -57.571007
 C         -64.367798     -170.345337      -57.465088
 C         -63.407612     -167.743149      -58.655212
 C         -65.227371     -169.602402      -58.522961
 C         -64.826691     -168.184814      -58.736923
 H         -61.496330     -168.244537      -57.739590
 H         -62.914845     -168.140198      -56.586266
 H         -64.592796     -171.402008      -57.564262
 H         -64.621277     -169.909851      -56.452438
 H         -62.834610     -167.914032      -59.590645
 H         -63.351528     -166.702881      -58.478447
 H         -66.301758     -169.714081      -58.177586
 H         -65.114487     -170.188416      -59.559124
 H         -65.278625     -168.051895      -59.683010
 H         -65.426010     -167.636948      -58.035820
