20
 generated by VMD
 C         -30.752468      -78.158180      -25.130749
 N         -31.501911      -77.232597      -25.122438
 H         -29.380869      -77.254539      -23.020445
 H         -29.889359      -78.874229      -25.487200
 C         -28.726456      -77.955681      -22.561182
 C         -27.445766      -78.064949      -23.241211
 C         -29.346827      -79.132080      -21.844995
 C         -26.490845      -78.969147      -22.497328
 C         -28.251291      -79.899765      -20.985630
 C         -27.187571      -80.240265      -22.019075
 H         -26.992682      -76.988640      -23.337074
 H         -27.539684      -78.307228      -24.360308
 H         -30.129116      -78.705879      -21.162327
 H         -29.979858      -79.854218      -22.487755
 H         -26.160772      -78.491608      -21.567698
 H         -25.627172      -79.196991      -23.195162
 H         -28.613789      -80.871819      -20.653360
 H         -27.725279      -79.245338      -20.192333
 H         -26.442726      -80.832024      -21.658470
 H         -27.717455      -80.704987      -22.862873
