20
 generated by VMD
 C         -25.078798      -70.979233      -16.890507
 N         -25.252052      -70.893074      -15.743705
 H         -23.824877      -68.193001      -19.016510
 H         -25.013693      -70.943542      -18.055899
 C         -24.508150      -68.924591      -19.434050
 C         -23.798889      -69.631615      -20.607243
 C         -25.875799      -68.331909      -19.775475
 C         -24.929760      -70.505196      -21.289408
 C         -26.822317      -69.218399      -20.498905
 C         -26.113422      -69.783386      -21.755499
 H         -22.997118      -70.247734      -20.261158
 H         -23.269312      -68.838005      -21.150862
 H         -26.252537      -68.081657      -18.749800
 H         -25.754753      -67.395889      -20.519245
 H         -25.200251      -71.263885      -20.500736
 H         -24.515753      -71.135925      -22.071629
 H         -27.772085      -68.777786      -20.877575
 H         -27.121449      -70.067879      -19.780272
 H         -26.809731      -70.462006      -22.361746
 H         -25.827820      -68.847244      -22.327559
