20
 generated by VMD
 C         -62.847969     -173.596832      -55.537495
 N         -63.471600     -174.175507      -54.795273
 H         -61.674877     -171.891556      -58.564907
 H         -62.200943     -173.084518      -56.216511
 C         -62.524403     -171.241302      -58.644440
 C         -62.706661     -170.032791      -57.710350
 C         -63.887726     -171.803452      -59.184380
 C         -63.768936     -168.976883      -58.382973
 C         -64.810753     -170.676941      -59.671970
 C         -65.119835     -169.534592      -58.807671
 H         -61.811756     -169.544388      -57.478451
 H         -63.129173     -170.453949      -56.627731
 H         -63.747391     -172.643127      -59.923180
 H         -64.235634     -172.401550      -58.373230
 H         -63.245735     -168.399323      -59.254467
 H         -63.943096     -168.169388      -57.569042
 H         -65.763290     -171.141190      -59.823334
 H         -64.514473     -170.354050      -60.653271
 H         -65.750053     -168.767715      -59.328377
 H         -65.683342     -169.900757      -58.006721
