20
 generated by VMD
 C         -68.143555     -188.393112      -66.717880
 N         -68.761551     -188.171051      -67.663712
 H         -68.217453     -187.033951      -63.505268
 H         -67.587090     -188.645767      -65.833115
 C         -69.201523     -187.497025      -63.505100
 C         -69.350395     -188.806152      -62.819645
 C         -70.401176     -186.668137      -63.611668
 C         -70.655106     -189.559158      -63.246632
 C         -71.804710     -187.384094      -63.748241
 C         -71.936295     -188.630142      -62.842384
 H         -69.084328     -188.498993      -61.777435
 H         -68.545975     -189.495941      -63.201515
 H         -70.424812     -186.050674      -62.680840
 H         -70.300514     -186.068481      -64.488869
 H         -70.690613     -190.547348      -62.795864
 H         -70.628716     -189.724091      -64.330727
 H         -71.860909     -187.661285      -64.837555
 H         -72.604660     -186.711212      -63.384613
 H         -71.842773     -188.235184      -61.761932
 H         -73.021400     -189.108292      -63.070900
