20
 generated by VMD
 C         -77.372604     -203.466080      -67.416573
 N         -77.978203     -204.372711      -67.071884
 H         -74.714813     -200.908325      -67.569527
 H         -76.731766     -202.606323      -67.454025
 C         -74.392128     -200.423676      -68.427879
 C         -74.931572     -199.113998      -68.743240
 C         -73.992882     -201.131882      -69.637978
 C         -73.872223     -198.253571      -69.503319
 C         -72.860435     -200.454193      -70.363930
 C         -73.310204     -199.034119      -70.703209
 H         -75.241196     -198.505859      -67.899963
 H         -75.791634     -199.229462      -69.295258
 H         -73.637032     -202.165741      -69.293762
 H         -74.808113     -201.252182      -70.377991
 H         -73.104782     -197.903580      -68.778503
 H         -74.416443     -197.306427      -69.794128
 H         -72.583855     -200.854645      -71.303650
 H         -72.025017     -200.463837      -69.741379
 H         -72.365898     -198.521393      -71.043137
 H         -73.951103     -199.127228      -71.487892
