20
 generated by VMD
 C         -19.192293      -59.849621      -17.105427
 N         -18.927305      -60.773430      -16.468615
 H         -22.808073      -61.344254      -17.736507
 H         -19.496029      -58.803741      -17.508087
 C         -23.495207      -62.087452      -17.375826
 C         -24.421188      -62.982899      -18.183308
 C         -23.233221      -62.411404      -15.941576
 C         -24.015015      -64.466156      -17.932724
 C         -23.435427      -63.776653      -15.478981
 C         -24.090652      -64.824089      -16.430140
 H         -24.196335      -62.879421      -19.245222
 H         -25.507387      -62.810940      -17.842947
 H         -22.199255      -62.203529      -15.779975
 H         -23.882416      -61.668232      -15.407094
 H         -22.989834      -64.634697      -18.079105
 H         -24.549612      -65.236244      -18.523222
 H         -23.836298      -63.792934      -14.477942
 H         -22.463791      -64.147537      -15.157330
 H         -23.453205      -65.727890      -16.324184
 H         -25.099485      -65.220459      -16.172079
