20
 generated by VMD
 C         -58.556381     -161.726013      -56.396004
 N         -58.066456     -160.716385      -56.111698
 H         -59.563248     -165.007156      -55.251892
 H         -58.977001     -162.712860      -56.642815
 C         -60.270439     -164.255371      -54.854153
 C         -59.782814     -163.635010      -53.515396
 C         -61.725906     -164.367203      -55.128616
 C         -60.559055     -162.278824      -53.338615
 C         -62.565643     -163.160339      -54.813351
 C         -62.147343     -162.447006      -53.480831
 H         -58.702778     -163.706802      -53.233883
 H         -60.204227     -164.297485      -52.717846
 H         -61.988144     -164.701279      -56.180809
 H         -62.101513     -165.212082      -54.568741
 H         -60.207462     -161.602280      -54.167019
 H         -60.116989     -161.733261      -52.416557
 H         -63.548256     -163.472961      -54.719212
 H         -62.319561     -162.408691      -55.562340
 H         -62.529419     -161.426117      -53.564026
 H         -62.574795     -162.969025      -52.546432
