20
 generated by VMD
 C         -68.910202     -184.673752      -66.308319
 N         -69.547928     -185.462814      -66.902206
 H         -69.617119     -182.840012      -63.474354
 H         -68.444374     -183.964691      -65.654106
 C         -69.136368     -183.557480      -62.796082
 C         -69.839783     -184.766266      -62.201260
 C         -68.119186     -182.951538      -61.921967
 C         -68.975212     -185.639374      -61.295937
 C         -67.053864     -183.811996      -61.295773
 C         -67.802475     -184.934692      -60.454964
 H         -70.211174     -185.410065      -62.996338
 H         -70.667160     -184.296051      -61.675770
 H         -67.550621     -182.115341      -62.407551
 H         -68.706764     -182.473282      -61.183151
 H         -68.601440     -186.423096      -62.046436
 H         -69.526672     -186.245712      -60.534130
 H         -66.229607     -183.400085      -60.661449
 H         -66.488922     -184.181320      -62.203579
 H         -67.052711     -185.601929      -60.237656
 H         -68.089066     -184.472244      -59.476143
