20
 generated by VMD
 C         -50.572800     -145.052841      -44.969090
 N         -50.760017     -145.892181      -44.193092
 H         -53.740650     -144.482513      -46.551441
 H         -50.614571     -144.287231      -45.715565
 C         -53.581825     -143.540497      -47.042591
 C         -52.547615     -143.373032      -48.191555
 C         -54.711529     -142.520706      -47.046139
 C         -53.350739     -143.473206      -49.611343
 C         -55.449772     -142.613220      -48.427952
 C         -54.526073     -142.484985      -49.608368
 H         -51.828548     -144.162766      -48.038128
 H         -51.914211     -142.395370      -48.112030
 H         -55.347153     -142.559998      -46.154034
 H         -54.311565     -141.577042      -47.036877
 H         -53.735451     -144.566452      -49.694965
 H         -52.578995     -143.298401      -50.373596
 H         -56.250278     -141.831573      -48.449482
 H         -55.873623     -143.680786      -48.496162
 H         -55.302677     -142.565903      -50.420029
 H         -54.195518     -141.412552      -49.703541
