20
 generated by VMD
 C         -40.173141     -104.956451      -36.909847
 N         -39.596920     -103.976181      -37.098660
 H         -39.882721     -108.532600      -35.345566
 H         -40.829105     -105.791672      -36.892330
 C         -39.693977     -108.679657      -34.290955
 C         -38.587341     -108.004120      -33.577831
 C         -40.300228     -109.854401      -33.588093
 C         -38.875065     -107.552612      -32.194221
 C         -40.545914     -109.542549      -32.100044
 C         -39.382225     -108.856789      -31.428499
 H         -38.366043     -107.034698      -34.190136
 H         -37.612980     -108.654793      -33.549778
 H         -41.220646     -110.253654      -33.978474
 H         -39.566475     -110.683990      -33.712280
 H         -39.673805     -106.807701      -32.127384
 H         -38.020473     -107.128899      -31.708048
 H         -40.760708     -110.512665      -31.624279
 H         -41.467178     -108.881775      -31.896891
 H         -39.737617     -108.610779      -30.466406
 H         -38.527897     -109.647636      -31.219418
