20
 generated by VMD
 C         -50.484325     -145.063065      -45.182091
 N         -50.474133     -145.514008      -44.062996
 H         -53.198490     -143.352676      -45.846283
 H         -50.650276     -144.606827      -46.147179
 C         -53.498795     -143.249451      -46.872952
 C         -52.595146     -143.259598      -48.145332
 C         -54.754318     -142.448883      -47.004272
 C         -53.374874     -143.343750      -49.468452
 C         -55.369755     -142.507523      -48.327374
 C         -54.470787     -142.338135      -49.528614
 H         -51.932610     -144.081345      -48.134453
 H         -51.852310     -142.411575      -48.327179
 H         -55.543812     -142.845779      -46.264545
 H         -54.407188     -141.318420      -46.873661
 H         -53.910202     -144.290085      -49.599812
 H         -52.647686     -143.243073      -50.295776
 H         -56.129307     -141.786377      -48.468430
 H         -56.060520     -143.404419      -48.402622
 H         -55.054180     -142.420517      -50.510597
 H         -54.085159     -141.262405      -49.587227
