20
 generated by VMD
 C         -49.941593     -131.342987      -46.600403
 N         -50.299725     -131.661789      -47.718102
 H         -48.295212     -131.930634      -44.030548
 H         -49.787106     -131.074692      -45.551037
 C         -48.928513     -132.222580      -43.228985
 C         -49.696358     -133.586380      -43.213467
 C         -48.750561     -131.692047      -41.846981
 C         -48.812469     -134.574982      -42.371136
 C         -47.986008     -132.661728      -40.936604
 C         -48.544437     -134.117615      -40.974915
 H         -49.816292     -133.940750      -44.306011
 H         -50.685516     -133.442535      -42.747833
 H         -48.169186     -130.725494      -41.883373
 H         -49.800690     -131.305130      -41.574558
 H         -47.982178     -134.851242      -42.985680
 H         -49.463375     -135.414795      -42.436539
 H         -47.843834     -132.435425      -39.821716
 H         -46.900307     -132.852341      -41.201683
 H         -47.790062     -134.762207      -40.619564
 H         -49.544441     -134.191025      -40.419174
