20
 generated by VMD
 C         -38.661053     -111.363281      -36.441635
 N         -38.344589     -110.232307      -36.497898
 H         -40.153381     -113.897209      -35.066315
 H         -39.023502     -112.433243      -36.357948
 C         -41.159885     -113.517769      -35.386650
 C         -41.750957     -113.805832      -36.743568
 C         -41.760906     -112.504532      -34.485813
 C         -43.191700     -114.127472      -36.489887
 C         -43.202629     -112.900803      -34.314739
 C         -43.886829     -112.946556      -35.658993
 H         -41.165909     -114.689911      -37.116283
 H         -41.760551     -112.937378      -37.434498
 H         -41.424679     -112.412094      -33.468861
 H         -41.780659     -111.553551      -34.931595
 H         -43.289284     -115.079399      -35.853214
 H         -43.696938     -114.580643      -37.270851
 H         -43.656185     -112.108437      -33.723625
 H         -43.149555     -113.859390      -33.776745
 H         -44.916004     -113.160614      -35.691780
 H         -43.725491     -112.018364      -36.295013
