20
 generated by VMD
 C         -33.614082      -96.477203      -25.696085
 N         -34.554230      -96.510948      -26.378983
 H         -35.054485      -94.280685      -27.345728
 H         -32.805397      -96.238663      -25.120821
 C         -34.926060      -94.149597      -28.407461
 C         -35.908459      -94.783394      -29.310440
 C         -33.608135      -93.871948      -28.981260
 C         -36.039524      -93.846756      -30.573679
 C         -33.777214      -92.999519      -30.185575
 C         -34.764965      -93.538254      -31.278193
 H         -36.852989      -94.752258      -28.757946
 H         -35.644691      -95.783249      -29.566324
 H         -32.992973      -93.298431      -28.238489
 H         -33.195938      -94.853310      -29.068611
 H         -36.597706      -92.958336      -30.294924
 H         -36.779099      -94.343987      -31.231209
 H         -32.814507      -92.691788      -30.726643
 H         -34.119324      -92.025650      -29.882229
 H         -35.059563      -92.774940      -32.070812
 H         -34.427402      -94.419701      -31.754332
