20
 generated by VMD
 C         -68.182121     -185.901764      -67.587563
 N         -68.554131     -187.019897      -67.578529
 H         -68.521866     -187.739380      -64.602188
 H         -67.828987     -184.933319      -67.719238
 C         -69.226906     -187.600479      -63.840321
 C         -68.749809     -187.228607      -62.471779
 C         -70.710121     -187.682602      -64.225479
 C         -69.787628     -187.521530      -61.320614
 C         -71.396133     -188.334778      -63.047550
 C         -71.266228     -187.495316      -61.756252
 H         -68.816841     -186.173248      -62.418861
 H         -67.802483     -187.698502      -62.288349
 H         -71.171432     -186.677704      -64.400490
 H         -70.786682     -188.402969      -65.121811
 H         -69.624367     -186.902298      -60.374142
 H         -69.539276     -188.528000      -60.985039
 H         -70.992195     -189.294617      -62.879539
 H         -72.424576     -188.332870      -63.296921
 H         -71.500008     -186.403000      -61.874828
 H         -71.962387     -188.030640      -61.012352
