20
 generated by VMD
 C         -28.382507      -85.447166      -26.769844
 N         -27.332855      -85.844521      -26.409735
 H         -30.942238      -85.404892      -25.682301
 H         -29.436472      -85.104050      -27.066647
 C         -31.863987      -86.029083      -25.725805
 C         -32.525970      -86.374474      -24.404716
 C         -32.032238      -86.846756      -26.964222
 C         -33.893414      -87.225174      -24.513947
 C         -33.425968      -87.451996      -26.915417
 C         -33.801849      -88.131866      -25.699463
 H         -32.809219      -85.387291      -23.894348
 H         -31.735855      -86.866714      -23.969442
 H         -31.926607      -86.390846      -27.909502
 H         -31.328491      -87.672180      -27.109961
 H         -34.774536      -86.519142      -24.793285
 H         -34.002274      -87.858437      -23.580196
 H         -33.575100      -88.174408      -27.713419
 H         -34.140530      -86.550674      -27.130493
 H         -34.895683      -88.551079      -25.732712
 H         -33.186981      -89.043999      -25.556702
