20
 generated by VMD
 C         -50.897869     -129.974640      -44.962521
 N         -51.702686     -129.257202      -45.479301
 H         -48.623455     -129.913666      -43.274635
 H         -50.412308     -130.754517      -44.319267
 C         -48.101273     -129.879013      -42.376976
 C         -47.963161     -131.125046      -41.563328
 C         -47.528580     -128.740417      -41.625622
 C         -46.542515     -131.464828      -41.116165
 C         -46.054241     -128.967072      -41.061600
 C         -45.916355     -130.308960      -40.283985
 H         -48.316219     -131.905731      -42.285786
 H         -48.665112     -131.155380      -40.688164
 H         -47.490101     -127.798660      -42.237389
 H         -48.316578     -128.460403      -40.774185
 H         -45.893478     -131.844223      -41.944530
 H         -46.383083     -132.266220      -40.340225
 H         -45.827637     -128.138489      -40.433945
 H         -45.426254     -128.911407      -41.935261
 H         -44.876068     -130.367416      -39.977810
 H         -46.577171     -130.251816      -39.413094
