20
 generated by VMD
 C         -31.281092      -77.625038      -26.046110
 N         -31.703585      -77.985497      -27.040684
 H         -29.312424      -79.314781      -24.316326
 H         -31.139795      -77.181175      -24.991457
 C         -28.964773      -79.600075      -23.319193
 C         -27.465391      -79.655945      -23.153271
 C         -29.883284      -80.626862      -22.648811
 C         -26.950621      -80.458008      -21.904390
 C         -29.245035      -81.454842      -21.483599
 C         -27.796675      -81.770088      -21.596720
 H         -26.934212      -78.667534      -23.034149
 H         -27.009018      -79.981445      -24.196819
 H         -30.750433      -80.205170      -22.296637
 H         -30.210236      -81.279366      -23.530666
 H         -27.022701      -79.784981      -21.015398
 H         -25.846777      -80.689713      -22.063683
 H         -29.863949      -82.349289      -21.252333
 H         -29.394321      -80.790970      -20.713078
 H         -27.468424      -82.210526      -20.568756
 H         -27.467062      -82.486755      -22.365778
