20
 generated by VMD
 C         -67.693237     -189.688354      -66.928154
 N         -66.850838     -189.053299      -67.379852
 H         -68.883034     -188.827972      -64.127953
 H         -68.467232     -190.101334      -66.366226
 C         -69.915611     -188.958862      -63.829094
 C         -70.755943     -190.202866      -63.967247
 C         -70.421600     -187.645264      -63.112350
 C         -72.244125     -189.843460      -64.091873
 C         -71.880913     -187.370407      -63.750050
 C         -72.708359     -188.609741      -63.406666
 H         -70.526894     -190.830826      -63.090813
 H         -70.433220     -190.931747      -64.727463
 H         -70.548225     -187.864365      -62.075939
 H         -69.745720     -186.786530      -63.377052
 H         -72.877823     -190.677383      -63.788315
 H         -72.446945     -189.694489      -65.173004
 H         -71.819336     -187.327362      -64.877357
 H         -72.106735     -186.410889      -63.262180
 H         -72.825768     -188.630829      -62.319847
 H         -73.715591     -188.530502      -63.702797
