20
 generated by VMD
 C         -28.137789      -84.622971      -26.068439
 N         -28.309938      -84.262787      -27.175406
 H         -31.565348      -84.599777      -26.259415
 H         -27.888056      -85.097504      -25.069515
 C         -31.489046      -85.533524      -25.827044
 C         -31.618649      -85.708748      -24.392513
 C         -31.888489      -86.594299      -26.762232
 C         -33.019279      -86.278107      -23.998676
 C         -33.284042      -87.140656      -26.313711
 C         -33.436893      -87.497688      -24.853142
 H         -31.279827      -84.872658      -23.831667
 H         -30.924019      -86.520844      -24.043610
 H         -31.875633      -86.283638      -27.820885
 H         -31.143587      -87.330940      -26.603086
 H         -33.887264      -85.518822      -23.988859
 H         -33.104427      -86.613762      -22.962215
 H         -33.440563      -87.981216      -27.003197
 H         -33.969078      -86.330017      -26.703213
 H         -34.450703      -87.718994      -24.415535
 H         -32.740833      -88.422249      -24.651192
