20
 generated by VMD
 C         -57.926781     -164.640717      -56.555637
 N         -57.250134     -163.923401      -57.179790
 H         -59.966751     -164.641556      -54.071880
 H         -58.488903     -165.312469      -55.946892
 C         -60.927090     -164.942596      -54.600529
 C         -61.911865     -165.768692      -53.878532
 C         -61.423126     -164.284271      -55.867908
 C         -63.374634     -165.465729      -53.951084
 C         -62.814098     -163.831604      -55.862080
 C         -63.710087     -165.044434      -55.407604
 H         -61.621613     -165.935883      -52.794186
 H         -61.709354     -166.812668      -54.179657
 H         -60.780903     -163.467896      -56.121845
 H         -61.187256     -165.072357      -56.562702
 H         -63.718586     -164.665085      -53.339802
 H         -63.871429     -166.435562      -53.897793
 H         -63.143772     -163.723724      -56.929703
 H         -63.142414     -162.852036      -55.513702
 H         -64.874580     -164.750305      -55.422909
 H         -63.532074     -165.917572      -56.183781
