20
 generated by VMD
 C          -2.593185      -16.914036        2.822484
 N          -2.306727      -16.692442        1.765952
 H          -4.395123      -15.983347       -0.002828
 H          -4.609094      -17.381678       -1.049209
 C          -5.106083      -16.716045       -0.279993
 C          -6.311322      -16.049318       -0.879032
 C          -5.451488      -17.704632        0.876111
 C          -7.189112      -17.131695       -1.495271
 C          -6.527401      -18.697327        0.408466
 C          -7.697376      -18.118792       -0.462139
 H          -5.966600      -15.241879       -1.584426
 H          -6.947037      -15.627110       -0.135493
 H          -4.534869      -18.190386        1.127345
 H          -5.883216      -17.039852        1.644713
 H          -6.683035      -17.578503       -2.412099
 H          -8.073765      -16.636438       -1.908924
 H          -7.026463      -19.185425        1.271197
 H          -6.098931      -19.516312       -0.183476
 H          -8.099091      -18.981712       -0.960755
 H          -8.556291      -17.765783        0.121316
