20
 generated by VMD
 C         -50.786186     -127.694229      -40.952324
 N         -51.417992     -128.407944      -41.636715
 H         -47.490498     -127.975151      -40.898281
 H         -50.371704     -127.033722      -40.206120
 C         -46.750900     -127.117813      -40.846718
 C         -45.415417     -127.531189      -40.151024
 C         -46.764839     -125.722137      -41.284843
 C         -44.160004     -126.984726      -40.715137
 C         -45.444080     -125.086372      -41.880329
 C         -44.272076     -125.515602      -41.033337
 H         -45.449768     -128.572968      -40.069248
 H         -45.636513     -127.204399      -39.122890
 H         -47.625080     -125.615471      -41.807228
 H         -46.889317     -125.138901      -40.385094
 H         -43.702366     -127.547852      -41.530392
 H         -43.317383     -127.049500      -40.014038
 H         -45.610950     -124.006943      -41.853607
 H         -45.483166     -125.377823      -42.875317
 H         -43.334877     -125.208160      -41.616768
 H         -44.337711     -124.905090      -40.116005
