20
 generated by VMD
 C         -48.024117     -135.223129      -46.122402
 N         -47.576340     -134.962616      -47.117302
 H         -51.320988     -134.627060      -45.606285
 H         -48.753452     -135.640701      -45.410164
 C         -51.309544     -135.570999      -44.952587
 C         -51.855923     -136.809830      -45.451653
 C         -51.213634     -135.359573      -43.376095
 C         -51.410320     -138.084869      -44.708099
 C         -50.763592     -136.632919      -42.717247
 C         -51.404247     -137.977066      -43.198814
 H         -51.591274     -136.806702      -46.521271
 H         -52.902451     -136.636383      -45.371605
 H         -50.636604     -134.477783      -43.028645
 H         -52.205139     -135.162598      -43.136021
 H         -50.338230     -138.210312      -44.902950
 H         -51.914902     -139.037781      -45.147533
 H         -51.071392     -136.603485      -41.613735
 H         -49.643875     -136.780777      -42.700821
 H         -50.816925     -138.735641      -42.718830
 H         -52.498283     -137.809219      -42.845165
