20
 generated by VMD
 C         -58.511280     -152.103653      -49.338665
 N         -59.678684     -152.184479      -49.515739
 H         -55.669430     -150.093887      -47.730179
 H         -57.478977     -152.096268      -49.073833
 C         -55.239044     -149.792328      -48.730434
 C         -54.483253     -150.801361      -49.506737
 C         -54.871445     -148.309937      -49.040321
 C         -54.174583     -150.395981      -50.888176
 C         -54.758198     -147.993149      -50.603649
 C         -53.825687     -148.988281      -51.182171
 H         -54.809265     -151.841507      -49.441853
 H         -53.431984     -150.902603      -49.074440
 H         -55.772163     -147.666412      -48.641850
 H         -53.905056     -148.049805      -48.502056
 H         -55.039463     -150.703339      -51.525826
 H         -53.360157     -151.054749      -51.214260
 H         -54.270241     -147.048111      -50.616863
 H         -55.776188     -148.233673      -51.189594
 H         -53.709068     -148.818985      -52.276333
 H         -52.895348     -148.803055      -50.648232
