20
 generated by VMD
 C         -12.635734      -30.153282       -7.736374
 N         -13.638451      -29.675592       -7.809191
 H         -11.462635      -30.330467       -4.969412
 H         -10.193936      -30.646940       -3.648506
 C         -10.781566      -31.050886       -4.447607
 C          -9.709769      -31.469387       -5.426901
 C         -11.623850      -32.188259       -4.021273
 C          -8.859653      -32.639072       -4.882855
 C         -10.836472      -33.303249       -3.350653
 C          -9.786453      -33.787506       -4.302036
 H          -9.092858      -30.659029       -5.671225
 H         -10.199480      -31.709070       -6.416310
 H         -12.347987      -31.851677       -3.277748
 H         -12.172727      -32.536411       -4.910445
 H          -8.181175      -32.317833       -4.033309
 H          -8.191690      -33.081947       -5.657478
 H         -11.568294      -34.144135       -3.100182
 H         -10.434438      -32.997227       -2.393214
 H          -9.157932      -34.514709       -3.724973
 H         -10.297164      -34.319309       -5.106703
