20
 generated by VMD
 C         -30.353594      -92.936958      -25.070168
 N         -30.141388      -93.847534      -25.770380
 H         -33.344177      -91.492226      -26.507467
 H         -30.406559      -92.097916      -24.458319
 C         -34.004864      -91.338585      -27.303772
 C         -35.136978      -92.243256      -27.643785
 C         -33.251549      -90.838463      -28.542511
 C         -36.046062      -91.509254      -28.607983
 C         -34.293118      -90.171997      -29.545414
 C         -35.451019      -91.120079      -29.959774
 H         -35.506916      -92.461189      -26.755087
 H         -34.821026      -93.123413      -28.146944
 H         -32.583260      -90.051163      -28.240208
 H         -32.773697      -91.758942      -28.951328
 H         -36.448582      -90.559158      -28.201378
 H         -36.885899      -92.149696      -28.896212
 H         -33.751286      -89.766945      -30.470592
 H         -34.717476      -89.294968      -28.975534
 H         -35.925850      -90.564369      -30.724363
 H         -35.004185      -92.035225      -30.383688
