20
 generated by VMD
 C         -28.101101      -87.168785      -27.167637
 N         -27.694706      -86.943748      -26.064066
 H         -31.182619      -88.352066      -25.253260
 H         -28.521271      -87.461021      -28.086199
 C         -32.189671      -88.308441      -25.672209
 C         -33.383224      -88.653015      -24.832634
 C         -32.359779      -88.410553      -27.188990
 C         -34.547157      -87.704742      -25.270578
 C         -33.614967      -87.571754      -27.715044
 C         -34.779583      -87.766426      -26.865520
 H         -33.183231      -88.337852      -23.752781
 H         -33.584869      -89.704964      -25.022324
 H         -31.467609      -88.042572      -27.770267
 H         -32.530128      -89.492516      -27.356825
 H         -34.304165      -86.710800      -24.995634
 H         -35.506893      -87.786491      -24.759916
 H         -33.870838      -87.823288      -28.733820
 H         -33.220203      -86.450279      -27.726896
 H         -35.580013      -87.010712      -27.083452
 H         -35.299412      -88.797935      -26.904922
