20
 generated by VMD
 C         -49.567799     -141.570251      -45.709869
 N         -49.611118     -142.344635      -44.835831
 H         -51.677204     -138.587204      -46.363705
 H         -49.700706     -140.986603      -46.636093
 C         -52.255573     -139.440308      -46.419125
 C         -52.857101     -139.610291      -47.824005
 C         -52.932064     -140.212860      -45.339127
 C         -53.067936     -141.058182      -48.200314
 C         -53.281143     -141.573288      -45.806618
 C         -53.887943     -141.791336      -47.123032
 H         -52.164314     -139.265488      -48.569721
 H         -53.804974     -139.086761      -48.022209
 H         -52.330997     -140.170456      -44.386322
 H         -53.894531     -139.603195      -45.004562
 H         -52.204002     -141.611557      -48.267487
 H         -53.613419     -140.981125      -49.073383
 H         -53.959663     -141.935257      -45.003147
 H         -52.288414     -142.184128      -45.723724
 H         -53.787083     -142.808640      -47.384693
 H         -54.919163     -141.563538      -47.040577
