20
 generated by VMD
 C         -12.768408      -28.310421       -5.800197
 N         -13.071662      -28.625433       -6.828395
 H         -12.089313      -31.284822       -4.968617
 H         -11.043030      -29.994339       -5.064660
 C         -11.102972      -31.006334       -4.725988
 C         -10.091771      -31.825712       -5.504210
 C         -10.843456      -31.053297       -3.219069
 C          -8.616232      -31.453754       -5.224060
 C          -9.396810      -30.533550       -2.956342
 C          -8.297073      -31.299618       -3.695148
 H         -10.162636      -31.721745       -6.644562
 H         -10.116255      -32.916878       -5.321825
 H         -11.636792      -30.490887       -2.681477
 H         -10.890255      -32.120415       -2.823706
 H          -8.358264      -30.467491       -5.701100
 H          -7.975654      -32.234810       -5.728158
 H          -9.194146      -30.671299       -1.843134
 H          -9.280434      -29.491974       -3.157510
 H          -7.360562      -30.810781       -3.567576
 H          -8.126275      -32.265137       -3.257665
