20
 generated by VMD
 C         -69.783661     -183.247910      -65.607277
 N         -70.610672     -182.538528      -65.930145
 H         -68.081459     -184.178864      -62.959538
 H         -69.015320     -183.873535      -65.290848
 C         -67.683784     -183.491592      -62.203892
 C         -67.730568     -184.111343      -60.852169
 C         -67.477180     -182.073746      -62.400352
 C         -67.025589     -183.280289      -59.808430
 C         -66.703705     -181.422577      -61.260799
 C         -67.186806     -181.770844      -59.876446
 H         -67.286049     -185.171875      -60.889118
 H         -68.876198     -184.409515      -60.538132
 H         -66.903137     -181.832870      -63.363842
 H         -68.494545     -181.857819      -62.465191
 H         -66.030907     -183.520996      -59.738850
 H         -67.391113     -183.690613      -58.888123
 H         -66.866577     -180.323074      -61.256573
 H         -65.615089     -181.680725      -61.397549
 H         -66.623665     -181.222809      -59.064213
 H         -68.159439     -181.483170      -59.592648
