20
 generated by VMD
 C         -18.272837      -49.174194       -7.958302
 N         -19.158543      -49.826908       -8.057378
 H         -16.222858      -47.454552       -9.972710
 H         -16.743805      -48.936733      -10.701937
 C         -16.513350      -47.899967      -10.941242
 C         -15.271903      -47.899754      -11.868501
 C         -17.731590      -47.205677      -11.568441
 C         -15.591754      -48.375275      -13.309660
 C         -18.010824      -47.650776      -13.036900
 C         -16.780466      -47.639378      -13.874263
 H         -14.432593      -48.494003      -11.389754
 H         -14.738886      -46.946415      -11.945308
 H         -18.562769      -47.464157      -10.909010
 H         -17.690712      -46.098156      -11.471953
 H         -15.892058      -49.422691      -13.271866
 H         -14.686813      -48.319336      -13.911163
 H         -18.827076      -47.029179      -13.545835
 H         -18.408834      -48.613914      -12.937057
 H         -17.056364      -48.111717      -14.795167
 H         -16.468050      -46.625313      -14.107355
