20
 generated by VMD
 C         -65.321472     -177.232193      -56.308197
 N         -65.989761     -177.179291      -55.338070
 H         -64.142258     -174.858398      -59.022400
 H         -64.669220     -177.364380      -57.173214
 C         -64.440102     -173.924927      -59.516037
 C         -65.232193     -172.969955      -58.732426
 C         -63.551128     -173.479736      -60.741928
 C         -64.783234     -171.588898      -58.729916
 C         -63.141380     -171.997086      -60.591705
 C         -64.220703     -171.142624      -60.072010
 H         -65.393265     -173.218369      -57.716366
 H         -66.301826     -172.816498      -59.044540
 H         -62.631630     -174.117737      -60.666534
 H         -64.182709     -173.632889      -61.562832
 H         -63.917763     -171.457657      -57.969536
 H         -65.615723     -170.891174      -58.390011
 H         -62.609493     -171.585571      -61.492603
 H         -62.390564     -171.936066      -59.859634
 H         -63.903145     -170.087631      -60.006863
 H         -65.030777     -171.145477      -60.760426
