20
 generated by VMD
 C         -78.138718     -204.133987      -70.068756
 N         -79.220436     -203.804901      -70.023224
 H         -76.412712     -202.965500      -68.050316
 H         -77.112328     -204.410172      -70.053864
 C         -75.636169     -202.798203      -68.821587
 C         -75.853020     -201.545776      -69.592232
 C         -74.267090     -203.464218      -68.804588
 C         -74.949341     -201.328079      -70.768822
 C         -73.061813     -202.684265      -69.360970
 C         -73.426468     -201.537003      -70.295853
 H         -75.704002     -200.692596      -68.955292
 H         -76.859337     -201.409698      -70.026360
 H         -73.981827     -203.922791      -67.829620
 H         -74.429451     -204.467239      -69.386116
 H         -75.154396     -200.324005      -71.159760
 H         -75.260529     -202.065308      -71.593811
 H         -72.416031     -203.260529      -69.966225
 H         -72.509811     -202.328232      -68.543167
 H         -73.120026     -200.657883      -69.842087
 H         -72.749084     -201.621277      -71.215439
