20
 generated by VMD
 C         -78.080635     -204.203918      -69.719620
 N         -79.056320     -203.697006      -69.973793
 H         -76.002243     -202.685471      -67.832771
 H         -77.156952     -204.615509      -69.300507
 C         -75.407150     -202.449524      -68.635078
 C         -75.789162     -201.235687      -69.466248
 C         -74.278786     -203.387344      -68.986221
 C         -74.887512     -201.201447      -70.669319
 C         -73.027603     -202.536942      -69.478447
 C         -73.497276     -201.225800      -70.312210
 H         -75.588722     -200.382095      -68.766823
 H         -76.800339     -201.240646      -69.757050
 H         -74.084541     -203.940796      -68.030586
 H         -74.699615     -204.121536      -69.681252
 H         -75.153358     -200.307785      -71.286758
 H         -75.108757     -202.027313      -71.389191
 H         -72.206062     -203.080978      -69.958939
 H         -72.518631     -202.204178      -68.615784
 H         -73.199379     -200.345551      -69.861641
 H         -72.914314     -201.323822      -71.243858
