20
 generated by VMD
 C         -79.236267     -205.819855      -73.391556
 N         -79.229660     -206.845581      -73.930038
 H         -78.320236     -205.521988      -69.888977
 H         -79.275467     -204.756561      -72.990234
 C         -77.591919     -206.117294      -70.397690
 C         -76.636101     -205.399475      -71.375031
 C         -77.115395     -207.441849      -69.816833
 C         -75.312828     -205.163422      -70.677345
 C         -75.677551     -207.247040      -69.202507
 C         -74.827385     -206.590195      -70.240829
 H         -77.044235     -204.412384      -71.555794
 H         -76.478828     -205.880981      -72.314293
 H         -77.895447     -207.532944      -69.087280
 H         -77.217865     -208.325668      -70.478676
 H         -75.348450     -204.489029      -69.799034
 H         -74.575989     -204.739395      -71.386673
 H         -75.235382     -208.210129      -68.907791
 H         -75.545631     -206.619873      -68.337021
 H         -73.726501     -206.700684      -70.026184
 H         -74.896599     -207.069824      -71.204712
