20
 generated by VMD
 C         -71.288956     -198.999191      -64.535942
 N         -70.437233     -198.634109      -65.246887
 H         -72.232361     -196.597198      -66.547104
 H         -72.220604     -199.134750      -63.964916
 C         -72.991158     -195.980453      -67.030617
 C         -73.195961     -194.499771      -66.680916
 C         -73.515472     -196.462234      -68.414345
 C         -73.397095     -193.628983      -67.865181
 C         -74.670677     -195.635773      -68.757782
 C         -74.379921     -194.130142      -68.878960
 H         -72.417854     -194.138992      -66.041611
 H         -73.991646     -194.239487      -65.937370
 H         -72.684654     -196.377914      -69.103783
 H         -73.916817     -197.495972      -68.389915
 H         -72.426018     -193.545502      -68.407051
 H         -73.513390     -192.567596      -67.651039
 H         -75.496521     -195.813110      -68.056412
 H         -75.059280     -196.111771      -69.648331
 H         -74.062469     -193.982986      -69.896385
 H         -75.424576     -193.586441      -68.844681
