20
 generated by VMD
 C         -27.233511      -72.869881      -17.971764
 N         -28.016371      -73.349541      -17.225651
 H         -24.764853      -70.166908      -18.817442
 H         -26.719971      -72.190193      -18.609758
 C         -25.110067      -70.668472      -19.670624
 C         -24.476677      -72.004883      -20.218014
 C         -25.528391      -69.640594      -20.674206
 C         -25.210136      -72.492638      -21.560694
 C         -26.464399      -70.231491      -21.707935
 C         -25.953064      -71.470818      -22.477589
 H         -24.593922      -72.821960      -19.309607
 H         -23.393505      -71.832260      -20.335825
 H         -25.994301      -68.838150      -19.988016
 H         -24.649071      -69.227043      -21.190140
 H         -26.017763      -73.223824      -21.388779
 H         -24.416044      -73.054871      -22.102142
 H         -26.732914      -69.488548      -22.511671
 H         -27.424408      -70.595207      -21.219904
 H         -26.756668      -71.937691      -22.953709
 H         -25.203850      -71.225639      -23.238291
