20
 generated by VMD
 C         -11.666218      -41.438625       -6.709886
 N         -11.297256      -42.384197       -6.271665
 H         -14.689257      -42.310108       -8.336892
 H         -15.180964      -41.300087       -9.702311
 C         -15.263354      -42.282722       -9.204127
 C         -16.731646      -42.565742       -8.885502
 C         -14.760442      -43.364319      -10.154015
 C         -17.629848      -42.563385      -10.140336
 C         -15.567195      -43.344200      -11.465280
 C         -17.093719      -43.427925      -11.253110
 H         -17.103117      -41.761669       -8.229487
 H         -16.903070      -43.454075       -8.313844
 H         -13.720692      -43.112968      -10.400911
 H         -14.896770      -44.316280       -9.724816
 H         -17.631866      -41.536743      -10.536948
 H         -18.610826      -42.868759       -9.737636
 H         -15.203868      -44.098362      -12.199623
 H         -15.385604      -42.357681      -11.912425
 H         -17.700733      -43.143810      -12.137753
 H         -17.325607      -44.475037      -11.099140
