20
 generated by VMD
 C         -67.626312     -192.715988      -66.835892
 N         -68.756142     -192.736282      -66.966393
 H         -69.797150     -189.910812      -65.245926
 H         -66.590851     -192.622833      -66.453499
 C         -70.831200     -190.137848      -65.189255
 C         -71.594238     -190.907791      -66.258667
 C         -71.634209     -189.951385      -63.850170
 C         -72.463615     -191.959991      -65.684776
 C         -73.185104     -190.146271      -64.027504
 C         -73.477951     -191.487778      -64.643501
 H         -70.851021     -191.361664      -66.835579
 H         -72.233734     -190.275864      -66.917984
 H         -71.297333     -190.642563      -63.182423
 H         -71.308701     -189.004272      -63.386524
 H         -71.842567     -192.787994      -65.508102
 H         -73.115540     -192.299683      -66.478645
 H         -73.463745     -189.332611      -64.772545
 H         -73.700661     -190.009338      -63.087933
 H         -73.634544     -192.140869      -63.773529
 H         -74.591629     -191.417419      -65.060059
