20
 generated by VMD
 C         -79.393166     -205.438370      -70.948967
 N         -80.317116     -206.017227      -71.333176
 H         -77.385254     -203.070786      -69.982590
 H         -78.656548     -204.973373      -70.361320
 C         -76.340988     -203.295059      -70.218811
 C         -75.330048     -202.173294      -70.360405
 C         -75.825401     -204.689972      -70.031837
 C         -73.772926     -202.585922      -70.478012
 C         -74.574013     -204.534561      -69.039513
 C         -73.345139     -203.873215      -69.770660
 H         -75.591278     -201.572601      -69.429184
 H         -75.568626     -201.507370      -71.161858
 H         -76.619232     -205.353394      -69.585724
 H         -75.446991     -205.113220      -71.064125
 H         -73.177910     -201.802811      -69.985435
 H         -73.424202     -202.749680      -71.478844
 H         -74.286293     -205.551529      -68.731552
 H         -74.746498     -204.008789      -68.104836
 H         -72.506828     -203.679626      -69.108116
 H         -72.908813     -204.497726      -70.575439
