20
 generated by VMD
 C         -69.968819     -184.274048      -66.027313
 N         -69.007759     -184.059662      -66.669579
 H         -69.562866     -183.647842      -63.442760
 H         -70.889748     -184.370102      -65.434006
 C         -68.931694     -183.797791      -62.569988
 C         -69.124763     -184.653137      -61.439217
 C         -68.064232     -182.511353      -62.419483
 C         -67.968758     -184.823639      -60.471840
 C         -66.958794     -182.785309      -61.399879
 C         -67.322464     -183.494385      -60.132732
 H         -69.324135     -185.690506      -61.845688
 H         -69.913742     -184.374985      -60.775166
 H         -67.712738     -182.301819      -63.404568
 H         -68.580269     -181.568146      -62.105598
 H         -67.027573     -185.322021      -60.798588
 H         -68.197914     -185.337677      -59.519749
 H         -66.547112     -181.797424      -61.252323
 H         -66.246681     -183.432831      -61.816048
 H         -66.461357     -183.723267      -59.536289
 H         -68.073280     -182.897842      -59.491920
