20
 generated by VMD
 C         -20.255211      -52.214733       -9.857884
 N         -21.103807      -51.555000      -10.238804
 H         -18.253384      -49.513027      -10.705330
 H         -19.657120      -52.978485       -9.102215
 C         -17.659437      -49.435337      -11.584088
 C         -16.889067      -50.648197      -11.860126
 C         -17.339842      -48.125000      -12.230904
 C         -16.916332      -50.894196      -13.342369
 C         -16.883375      -48.409962      -13.664938
 C         -16.181669      -49.780403      -14.018764
 H         -17.203699      -51.467484      -11.179880
 H         -15.853567      -50.491085      -11.489181
 H         -18.141293      -47.426506      -12.266053
 H         -16.476358      -47.713558      -11.704427
 H         -17.987989      -50.993294      -13.661740
 H         -16.558603      -51.843868      -13.681732
 H         -16.289755      -47.549007      -13.937307
 H         -17.765665      -48.326618      -14.257662
 H         -16.209629      -49.957848      -15.109428
 H         -15.101268      -49.778629      -13.687445
