20
 generated by VMD
 C         -56.217472     -149.869049      -47.714817
 N         -57.247620     -150.269119      -47.409035
 H         -53.413536     -148.017288      -47.391628
 H         -55.242390     -149.516739      -47.952927
 C         -53.770000     -147.843307      -48.364433
 C         -53.163162     -148.531799      -49.593987
 C         -54.549732     -146.535599      -48.587708
 C         -54.229729     -148.507629      -50.706188
 C         -55.591049     -146.707962      -49.667885
 C         -54.779690     -147.133270      -50.942528
 H         -52.883698     -149.421265      -49.168133
 H         -52.187592     -148.030411      -49.954700
 H         -55.085548     -146.173981      -47.781624
 H         -53.872517     -145.687683      -48.704895
 H         -55.043381     -149.118607      -50.342072
 H         -53.854576     -148.998932      -51.606178
 H         -56.183643     -145.743637      -49.669712
 H         -56.437180     -147.449036      -49.362396
 H         -55.514191     -147.289505      -51.697979
 H         -53.995850     -146.418640      -51.250015
