20
 generated by VMD
 C         -11.688959      -41.415318       -6.680826
 N         -11.250042      -42.381519       -6.293717
 H         -14.647421      -42.319176       -8.151632
 H         -15.149595      -41.287319       -9.710970
 C         -15.250011      -42.245113       -9.174641
 C         -16.703119      -42.528706       -8.902607
 C         -14.771624      -43.316139      -10.165114
 C         -17.621977      -42.553535      -10.117546
 C         -15.577628      -43.292084      -11.457623
 C         -17.116009      -43.487564      -11.277158
 H         -17.093355      -41.745129       -8.226558
 H         -16.759413      -43.455784       -8.248803
 H         -13.647205      -43.303654      -10.335525
 H         -14.882362      -44.350937       -9.700189
 H         -17.764023      -41.513374      -10.489341
 H         -18.669132      -42.828957       -9.941302
 H         -15.185685      -44.023808      -12.087096
 H         -15.426016      -42.247478      -11.887239
 H         -17.691586      -43.301815      -12.173666
 H         -17.263548      -44.504044      -10.883647
