20
 generated by VMD
 C         -21.868673      -55.596279      -17.576195
 N         -20.816853      -55.623829      -18.140800
 H         -22.187826      -57.354877      -14.822500
 H         -23.071798      -55.568436      -17.388737
 C         -21.755718      -58.371101      -14.709684
 C         -21.505102      -58.856426      -13.320184
 C         -21.628679      -59.464214      -15.825444
 C         -21.004400      -60.302380      -13.223532
 C         -20.221304      -60.045818      -15.720675
 C         -20.027979      -60.766293      -14.312314
 H         -22.356621      -58.543884      -12.639886
 H         -20.662113      -58.237263      -13.008594
 H         -22.409019      -60.196667      -15.902961
 H         -21.613653      -58.895245      -16.762489
 H         -21.916576      -60.910439      -13.407662
 H         -20.677523      -60.598175      -12.234117
 H         -19.518812      -59.220154      -15.854854
 H         -19.953745      -60.657097      -16.587887
 H         -20.014084      -61.856453      -14.427675
 H         -19.079899      -60.414852      -14.041263
