20
 generated by VMD
 C         -65.198700     -176.097702      -55.886677
 N         -65.154579     -177.232544      -55.620529
 H         -64.764030     -174.682816      -59.156792
 H         -65.339775     -175.058975      -56.112610
 C         -64.544899     -173.679749      -59.353462
 C         -65.242012     -172.581390      -58.475624
 C         -63.764675     -173.266510      -60.637585
 C         -64.602776     -171.272644      -58.627075
 C         -63.046749     -171.853943      -60.451275
 C         -64.083290     -170.947891      -59.944252
 H         -65.281395     -172.974213      -57.473125
 H         -66.347504     -172.630554      -58.822025
 H         -62.927902     -173.956802      -60.961346
 H         -64.432861     -173.022095      -61.423782
 H         -63.712532     -171.258530      -58.004208
 H         -65.312500     -170.550537      -58.252525
 H         -62.623806     -171.484818      -61.461216
 H         -62.188980     -171.883911      -59.795975
 H         -63.658398     -169.918167      -59.966156
 H         -64.894135     -170.966003      -60.628532
