20
 generated by VMD
 C         -47.752590     -139.621292      -46.011269
 N         -46.745583     -139.158279      -46.107567
 H         -51.013245     -138.820724      -44.613457
 H         -48.778763     -139.800110      -45.885265
 C         -51.857716     -139.082825      -45.251404
 C         -51.920761     -139.354202      -46.724789
 C         -53.109711     -138.835663      -44.573723
 C         -53.013161     -140.358948      -47.018059
 C         -54.203163     -139.839661      -44.981441
 C         -54.412960     -140.002579      -46.396236
 H         -51.014206     -139.820053      -46.993687
 H         -52.118202     -138.431198      -47.239113
 H         -52.981129     -138.755783      -43.485634
 H         -53.305782     -137.763306      -44.907162
 H         -52.692329     -141.331299      -46.634518
 H         -53.195599     -140.437775      -48.087582
 H         -55.237148     -139.576950      -44.582584
 H         -53.870438     -140.769394      -44.584595
 H         -55.167446     -140.690720      -46.619183
 H         -55.034210     -139.161118      -46.769611
