20
 generated by VMD
 C         -62.712204     -173.677582      -55.499924
 N         -63.558910     -174.173294      -54.870247
 H         -61.901741     -171.892715      -58.289761
 H         -62.017258     -173.169174      -56.150101
 C         -62.832382     -171.340057      -58.430031
 C         -62.797817     -170.005844      -57.784069
 C         -63.964230     -171.792755      -59.258507
 C         -63.702866     -168.992737      -58.280376
 C         -64.801445     -170.748993      -59.896057
 C         -64.988571     -169.649887      -58.785538
 H         -61.770546     -169.713257      -57.835579
 H         -62.922813     -170.229126      -56.731037
 H         -63.318909     -172.487213      -59.884781
 H         -64.495850     -172.508224      -58.593822
 H         -63.185249     -168.485153      -59.105862
 H         -63.885715     -168.207016      -57.612331
 H         -65.768761     -171.105270      -60.334534
 H         -64.164970     -170.355881      -60.795544
 H         -65.561714     -168.845413      -59.182346
 H         -65.579178     -170.099854      -57.991062
