20
 generated by VMD
 C         -49.512814     -132.085037      -46.387516
 N         -50.255840     -132.202362      -47.225254
 H         -47.797981     -133.919632      -44.577129
 H         -48.822018     -132.123596      -45.567646
 C         -48.517723     -134.239227      -43.849808
 C         -49.042374     -135.641464      -43.871170
 C         -49.105976     -133.200958      -42.983536
 C         -49.745567     -136.051270      -42.589787
 C         -49.832676     -133.729263      -41.717846
 C         -50.725754     -134.929871      -42.066917
 H         -48.158112     -136.239822      -44.016354
 H         -49.738285     -135.870911      -44.735561
 H         -48.296528     -132.569183      -42.731590
 H         -49.841755     -132.662018      -43.540680
 H         -49.080803     -136.522034      -41.862534
 H         -50.220230     -136.933151      -42.940659
 H         -50.526299     -133.058548      -41.110550
 H         -48.986225     -134.026062      -41.010551
 H         -51.155960     -135.485794      -41.166889
 H         -51.420483     -134.636902      -42.861031
