20
 generated by VMD
 C         -28.450872      -81.334053      -27.674431
 N         -29.494616      -80.929710      -27.427271
 H         -29.224356      -82.797150      -24.525169
 H         -27.455021      -81.703278      -27.668011
 C         -29.864733      -83.605835      -24.184811
 C         -30.013031      -83.810707      -22.728336
 C         -30.537455      -84.320221      -25.272230
 C         -31.476158      -84.153854      -22.446484
 C         -31.957352      -84.640945      -24.874195
 C         -32.073185      -85.176544      -23.381966
 H         -29.632799      -83.004593      -22.063593
 H         -29.390678      -84.705070      -22.437262
 H         -30.339657      -83.699516      -26.201836
 H         -30.007895      -85.242279      -25.556715
 H         -31.950359      -83.100677      -22.480051
 H         -31.590067      -84.531715      -21.479671
 H         -32.319889      -85.446030      -25.523729
 H         -32.691708      -83.690453      -25.030474
 H         -33.170303      -85.283485      -23.264297
 H         -31.695850      -86.164505      -23.268787
