20
 generated by VMD
 C         -30.514606      -75.481384      -22.680527
 N         -31.355436      -75.131500      -21.948118
 H         -28.678556      -77.968925      -21.163393
 H         -29.663664      -75.437607      -23.492346
 C         -27.817596      -77.363640      -21.478996
 C         -26.754547      -77.890167      -22.413157
 C         -27.625105      -76.082619      -20.780134
 C         -25.819441      -76.910362      -22.991074
 C         -26.742973      -75.121223      -21.447601
 C         -25.541098      -75.751801      -21.997469
 H         -27.183626      -78.614746      -23.134630
 H         -26.183586      -78.615456      -21.951792
 H         -28.598967      -75.636658      -20.757929
 H         -27.243450      -76.298523      -19.818214
 H         -26.480040      -76.500870      -23.801718
 H         -24.845583      -77.274834      -23.373491
 H         -26.518225      -74.303314      -20.763414
 H         -27.377251      -74.612846      -22.224487
 H         -24.858261      -74.996498      -22.346420
 H         -24.870958      -76.164619      -21.136366
