20
 generated by VMD
 C         -11.256146      -37.440342       -7.144569
 N         -11.466917      -37.736572       -8.174752
 H         -12.373160      -40.491982       -8.277451
 H         -13.666223      -39.843212       -7.144385
 C         -13.479351      -40.404808       -8.086679
 C         -14.046356      -41.837208       -7.941722
 C         -14.234159      -39.571377       -9.158975
 C         -15.530840      -41.879734       -7.801538
 C         -15.720942      -39.667461       -8.977162
 C         -16.254313      -41.128841       -8.915392
 H         -13.595352      -42.276718       -7.020995
 H         -13.710211      -42.380478       -8.816625
 H         -13.907955      -38.535320       -9.069043
 H         -13.921762      -39.949791      -10.130962
 H         -15.784636      -41.501369       -6.835303
 H         -15.868532      -42.931583       -7.876107
 H         -16.222841      -39.130142       -9.744569
 H         -16.016178      -39.099606       -8.016453
 H         -17.354729      -41.143177       -8.691099
 H         -16.137461      -41.576324       -9.944331
