20
 generated by VMD
 C         -78.211533     -203.969025      -69.158447
 N         -79.120689     -204.099686      -69.918480
 H         -75.533493     -202.500870      -67.710869
 H         -77.176270     -203.869766      -68.698814
 C         -75.172089     -202.065048      -68.552376
 C         -75.235909     -200.572906      -68.854622
 C         -73.890221     -202.798599      -68.853172
 C         -74.819313     -200.296143      -70.396904
 C         -72.918594     -202.027588      -69.652855
 C         -73.574677     -201.088562      -70.689629
 H         -74.542480     -200.134552      -68.182686
 H         -76.260742     -200.099350      -68.711945
 H         -73.438774     -203.304932      -67.954254
 H         -74.248230     -203.714722      -69.487442
 H         -74.650871     -199.227493      -70.666374
 H         -75.610611     -200.727341      -71.042854
 H         -72.154259     -202.710739      -70.059074
 H         -72.215897     -201.456055      -69.013268
 H         -72.833893     -200.481033      -71.057602
 H         -73.837791     -201.738937      -71.450981
