20
 generated by VMD
 C         -10.397167      -35.695576       -8.133517
 N         -10.120937      -35.806637       -9.202837
 H         -13.609056      -37.057182       -6.775546
 H         -14.611981      -38.070797       -5.721317
 C         -14.077950      -38.025398       -6.719833
 C         -13.137972      -39.190536       -6.740851
 C         -14.997531      -37.984802       -7.936568
 C         -13.861916      -40.530464       -6.912979
 C         -15.782887      -39.347443       -7.987666
 C         -14.849866      -40.536621       -8.060231
 H         -12.511986      -39.302696       -5.850621
 H         -12.372452      -39.065311       -7.535101
 H         -15.696935      -37.161678       -7.896365
 H         -14.445609      -37.719929       -8.876048
 H         -14.328622      -40.753330       -5.992279
 H         -13.124025      -41.365772       -6.962346
 H         -16.399199      -39.356491       -8.843030
 H         -16.491770      -39.470818       -7.100717
 H         -15.442394      -41.419918       -8.085011
 H         -14.303207      -40.475693       -9.008156
