20
 generated by VMD
 C         -68.019386     -192.830460      -66.345787
 N         -68.695457     -193.016907      -67.280319
 H         -69.892616     -189.904633      -65.331001
 H         -67.369865     -192.786423      -65.514252
 C         -70.931892     -190.210693      -65.252869
 C         -71.577873     -190.892120      -66.388557
 C         -71.576897     -190.240646      -63.846836
 C         -72.513084     -192.051178      -65.872025
 C         -73.149338     -190.398132      -63.995583
 C         -73.590462     -191.556931      -64.955704
 H         -70.806595     -191.360275      -67.099922
 H         -71.986412     -190.179749      -67.000526
 H         -71.032272     -191.086594      -63.328899
 H         -71.282066     -189.491440      -63.176590
 H         -71.898537     -192.772247      -65.211937
 H         -72.999855     -192.502594      -66.738815
 H         -73.569138     -189.487289      -64.318375
 H         -73.461700     -190.516296      -62.933792
 H         -73.927322     -192.339310      -64.349937
 H         -74.598320     -191.115768      -65.397583
