20
 generated by VMD
 C         -70.380005     -181.194351      -63.832474
 N         -70.924965     -182.117249      -63.318745
 H         -68.182610     -181.280457      -60.945122
 H         -69.878777     -180.273956      -64.235802
 C         -67.222427     -180.856735      -60.813782
 C         -65.956940     -181.571365      -60.496166
 C         -67.286613     -179.416092      -60.511200
 C         -64.679588     -180.696182      -60.680866
 C         -66.083664     -178.614761      -60.896412
 C         -64.858200     -179.266479      -60.259365
 H         -65.969116     -182.286255      -61.269505
 H         -66.110321     -181.846939      -59.460606
 H         -68.126915     -178.934799      -60.955288
 H         -67.370674     -179.163284      -59.416542
 H         -64.534950     -180.794998      -61.813980
 H         -63.740475     -181.085281      -60.244389
 H         -66.133301     -177.560410      -60.709362
 H         -65.896667     -178.684708      -61.978458
 H         -63.989887     -178.730911      -60.593327
 H         -64.976265     -179.169586      -59.091370
