20
 generated by VMD
 C          -1.940638      -13.203259        0.539165
 N          -1.597955      -13.298035        1.598178
 H          -3.467348      -16.499771        1.736511
 H          -3.901926      -16.292353        0.040193
 C          -4.355957      -16.492819        1.041938
 C          -5.282223      -15.321785        1.514636
 C          -5.151237      -17.800320        0.967917
 C          -6.523473      -15.264649        0.619435
 C          -6.415447      -17.649334        0.073981
 C          -7.336014      -16.536417        0.584422
 H          -4.728539      -14.431569        1.386841
 H          -5.535913      -15.281416        2.600381
 H          -4.546851      -18.566694        0.400731
 H          -5.374296      -18.200214        1.991801
 H          -6.197649      -15.002244       -0.440025
 H          -7.207008      -14.430598        0.858154
 H          -7.013844      -18.562332       -0.047269
 H          -6.072642      -17.418695       -0.917141
 H          -8.288090      -16.434422        0.039315
 H          -7.598781      -16.741835        1.624164
