20
 generated by VMD
 C         -31.650454      -75.730270      -23.868494
 N         -30.987331      -76.183632      -24.709530
 H         -29.491899      -78.578026      -22.282389
 H         -31.843132      -75.255081      -22.827900
 C         -28.511198      -78.194290      -22.060968
 C         -27.629208      -78.307999      -23.174961
 C         -28.067570      -78.080116      -20.641928
 C         -26.361420      -77.460823      -22.916792
 C         -26.746719      -77.346581      -20.530418
 C         -25.729265      -77.701591      -21.561888
 H         -28.130505      -78.139801      -24.182947
 H         -27.365181      -79.416374      -23.267416
 H         -28.833250      -77.679688      -20.026962
 H         -27.940971      -79.151398      -20.223490
 H         -26.625217      -76.404045      -22.912312
 H         -25.687046      -77.598801      -23.741707
 H         -26.418962      -77.382713      -19.383186
 H         -26.896170      -76.233910      -20.699223
 H         -24.911919      -76.993690      -21.366364
 H         -25.541199      -78.804405      -21.425131
