20
 generated by VMD
 C         -59.310349     -158.611420      -57.406082
 N         -58.569687     -158.238907      -58.188805
 H         -59.811932     -158.819427      -53.880592
 H         -59.971775     -158.914871      -56.616611
 C         -59.764889     -159.805527      -53.365932
 C         -58.460793     -160.033478      -52.660778
 C         -60.693039     -160.945129      -53.627235
 C         -58.779335     -160.585526      -51.137516
 C         -60.820995     -161.757278      -52.316879
 C         -59.629646     -161.832397      -51.253799
 H         -57.826866     -159.117203      -52.532871
 H         -57.831306     -160.690872      -53.386486
 H         -61.690998     -160.534424      -53.979801
 H         -60.245975     -161.446884      -54.405964
 H         -59.309971     -159.820450      -50.581448
 H         -57.692127     -160.882019      -50.718349
 H         -61.179516     -162.734146      -52.549839
 H         -61.631462     -161.368546      -51.709557
 H         -60.007915     -162.011108      -50.210281
 H         -58.862366     -162.667831      -51.641354
