20
 generated by VMD
 C         -70.616547     -196.687149      -65.803284
 N         -69.452881     -196.535004      -65.972794
 H         -73.728462     -195.326385      -64.813789
 H         -71.673851     -196.707458      -65.703178
 C         -73.467430     -195.089233      -65.813759
 C         -72.687607     -193.789139      -65.869560
 C         -74.468719     -195.396378      -66.813385
 C         -72.600471     -193.184753      -67.337036
 C         -73.888336     -195.161148      -68.216179
 C         -73.527069     -193.708755      -68.444489
 H         -71.701202     -193.953384      -65.480507
 H         -73.088135     -193.124893      -65.180046
 H         -74.970589     -196.327164      -66.835350
 H         -75.270386     -194.670105      -66.822273
 H         -71.620033     -193.255844      -67.747734
 H         -72.717468     -192.102951      -67.274605
 H         -74.531670     -195.455673      -69.039177
 H         -73.035889     -195.851852      -68.290886
 H         -73.011002     -193.710953      -69.412666
 H         -74.540817     -193.177460      -68.659393
