20
 generated by VMD
 C         -53.394100     -147.617813      -45.537224
 N         -54.462463     -147.656876      -45.005455
 H         -54.767857     -147.800293      -48.387756
 H         -52.456821     -147.456055      -46.020546
 C         -54.450314     -146.815399      -48.777046
 C         -53.245514     -146.622543      -49.619602
 C         -55.002487     -145.616348      -48.148769
 C         -53.367306     -145.364319      -50.537151
 C         -55.239960     -144.366333      -49.017109
 C         -53.801201     -144.050308      -49.747078
 H         -53.068977     -147.529175      -50.242783
 H         -52.333572     -146.519440      -49.048653
 H         -55.951782     -145.812561      -47.613148
 H         -54.247742     -145.441437      -47.362328
 H         -54.228115     -145.638397      -51.125774
 H         -52.437698     -145.180557      -51.136921
 H         -55.440926     -143.635590      -48.359371
 H         -56.044941     -144.487961      -49.809254
 H         -54.116760     -143.258545      -50.500587
 H         -53.075191     -143.454239      -49.199883
