20
 generated by VMD
 C         -38.196377     -110.235573      -36.157162
 N         -37.643433     -109.197792      -36.241367
 H         -40.168140     -113.661697      -35.900787
 H         -38.799976     -111.184189      -36.053082
 C         -41.153278     -113.158638      -35.935291
 C         -42.314777     -113.834099      -36.710979
 C         -41.528812     -111.932114      -35.111568
 C         -43.429802     -114.157639      -35.680241
 C         -42.557350     -112.390930      -34.075939
 C         -43.790165     -112.955589      -34.807610
 H         -41.972473     -114.828865      -37.047253
 H         -42.680305     -113.406647      -37.611015
 H         -40.555393     -111.626541      -34.744511
 H         -41.730583     -111.204895      -35.917465
 H         -42.961063     -114.837540      -35.052139
 H         -44.366226     -114.497116      -36.216038
 H         -42.988121     -111.535919      -33.440884
 H         -42.198986     -113.186012      -33.346519
 H         -44.566784     -113.265831      -34.230190
 H         -44.178474     -112.102890      -35.444508
