20
 generated by VMD
 C         -70.301079     -183.385925      -66.085068
 N         -69.258675     -182.937088      -65.943924
 H         -68.952843     -184.700180      -63.101425
 H         -71.317284     -183.848175      -66.199707
 C         -68.319527     -184.311111      -62.283871
 C         -68.284966     -184.735458      -60.804543
 C         -67.809265     -182.968246      -62.745472
 C         -67.380478     -183.938553      -59.926292
 C         -67.082962     -182.068146      -61.650978
 C         -67.485420     -182.429459      -60.241955
 H         -67.806320     -185.741440      -60.720722
 H         -69.381683     -184.758469      -60.539059
 H         -67.038094     -183.030930      -63.530212
 H         -68.667763     -182.495850      -63.111820
 H         -66.349640     -184.270935      -60.004978
 H         -67.696716     -184.005600      -58.868656
 H         -67.590202     -181.094971      -61.712475
 H         -66.047882     -182.133606      -61.942772
 H         -66.833939     -181.774673      -59.553654
 H         -68.514679     -182.240036      -60.021950
