20
 generated by VMD
 C         -66.758263     -190.128815      -66.797691
 N         -67.627220     -190.142914      -66.046127
 H         -70.550079     -191.042679      -66.359840
 H         -65.820007     -189.936249      -67.337738
 C         -71.130310     -190.437958      -65.612465
 C         -72.416176     -191.104584      -65.173347
 C         -70.485901     -189.471909      -64.677223
 C         -73.267548     -190.299149      -64.088242
 C         -71.480278     -188.603455      -63.959316
 C         -72.517624     -189.419022      -63.221584
 H         -72.103088     -192.069580      -64.738846
 H         -73.019745     -191.116333      -66.022118
 H         -69.822754     -190.095764      -64.066742
 H         -69.930336     -188.888626      -65.283752
 H         -73.728310     -191.079239      -63.408199
 H         -74.085777     -189.737930      -64.539902
 H         -71.923416     -187.910126      -64.633614
 H         -70.945923     -187.887161      -63.275669
 H         -71.884468     -189.949539      -62.482849
 H         -73.203743     -188.877838      -62.715969
