20
 generated by VMD
 C         -25.814741      -71.213150      -17.036116
 N         -25.817917      -71.890991      -16.100599
 H         -24.125282      -68.726219      -18.645121
 H         -25.758478      -70.605690      -17.877232
 C         -24.547672      -69.210815      -19.554760
 C         -23.879095      -70.219139      -20.513540
 C         -25.767281      -68.609314      -20.111992
 C         -24.953709      -71.026848      -21.293581
 C         -26.825659      -69.412422      -20.870457
 C         -26.092306      -70.262497      -21.894821
 H         -23.424410      -70.826561      -19.844982
 H         -23.273361      -69.569275      -21.147478
 H         -26.262856      -68.076546      -19.333139
 H         -25.512753      -67.791565      -20.738855
 H         -25.489492      -71.744843      -20.636993
 H         -24.525322      -71.600777      -22.133627
 H         -27.635557      -68.709373      -21.225939
 H         -27.456539      -70.016960      -20.138588
 H         -26.791618      -70.996811      -22.395723
 H         -25.672098      -69.676994      -22.783485
