20
 generated by VMD
 C         -29.021614      -81.407715      -27.688717
 N         -29.796625      -80.553864      -27.516239
 H         -29.113436      -82.139893      -23.872053
 H         -28.295000      -82.312576      -27.723389
 C         -29.513008      -83.147896      -23.816401
 C         -29.803520      -83.818764      -22.440189
 C         -30.055725      -83.891579      -25.063923
 C         -31.265892      -83.973885      -22.276171
 C         -31.554255      -84.212784      -24.840052
 C         -31.960363      -84.631332      -23.474619
 H         -29.329836      -83.339973      -21.573132
 H         -29.403559      -84.818481      -22.397730
 H         -29.997864      -83.290741      -25.949066
 H         -29.442549      -84.757439      -25.252501
 H         -31.718344      -83.016129      -22.227892
 H         -31.746737      -84.369537      -21.236275
 H         -31.762360      -84.922577      -25.681234
 H         -32.012142      -83.303055      -25.091032
 H         -32.999821      -84.395096      -23.405134
 H         -31.804121      -85.711418      -23.406059
