20
 generated by VMD
 C          -5.941579      -22.095900        1.954761
 N          -6.569026      -22.872738        2.474708
 H          -5.334327      -19.379555       -0.781125
 H          -6.610838      -20.226131       -0.205158
 C          -6.168167      -19.925364       -1.131414
 C          -5.678362      -21.026514       -1.978939
 C          -7.161532      -19.063898       -1.842925
 C          -6.837885      -21.853718       -2.357689
 C          -8.387471      -19.839811       -2.318683
 C          -7.884212      -21.047199       -3.111052
 H          -4.962880      -21.630247       -1.450914
 H          -5.112569      -20.655672       -2.904932
 H          -7.598951      -18.170509       -1.232502
 H          -6.663562      -18.729933       -2.828966
 H          -7.295779      -22.256149       -1.437927
 H          -6.510839      -22.687050       -3.022881
 H          -9.074413      -19.218443       -2.930858
 H          -8.866291      -20.171448       -1.408921
 H          -8.730228      -21.713799       -3.353592
 H          -7.459099      -20.675625       -4.068151
