20
 generated by VMD
 C         -67.864494     -179.398270      -58.690334
 N         -68.194550     -180.105087      -57.831459
 H         -66.668747     -176.480789      -59.523506
 H         -67.601280     -178.792709      -59.558495
 C         -65.844231     -176.019669      -59.834347
 C         -66.071236     -174.937332      -60.945835
 C         -64.403679     -176.387970      -59.600719
 C         -65.048752     -173.832367      -60.945454
 C         -63.546551     -175.202515      -59.406048
 C         -63.600868     -174.227005      -60.557072
 H         -67.059349     -174.501022      -60.669407
 H         -66.199867     -175.313736      -61.954170
 H         -64.302780     -177.044891      -58.770519
 H         -64.038666     -176.973740      -60.502106
 H         -65.326241     -172.971985      -60.189724
 H         -65.087746     -173.305603      -61.944233
 H         -62.464241     -175.509613      -59.165890
 H         -63.843903     -174.644455      -58.510330
 H         -63.127937     -173.323959      -60.147102
 H         -63.107197     -174.697525      -61.452999
