20
 generated by VMD
 C         -49.896385     -128.533844      -43.292610
 N         -50.662346     -129.094727      -43.938381
 H         -48.771698     -128.312378      -39.965027
 H         -49.378353     -128.095337      -42.454887
 C         -47.736992     -128.236908      -40.331451
 C         -46.723904     -129.319382      -39.948235
 C         -47.428432     -126.888145      -41.065800
 C         -45.686268     -129.481598      -41.043739
 C         -46.401531     -127.212852      -42.138950
 C         -45.263805     -128.156876      -41.652782
 H         -47.349697     -130.238098      -39.734150
 H         -46.231480     -129.132156      -38.996033
 H         -48.311401     -126.530251      -41.501671
 H         -47.219093     -126.093292      -40.213257
 H         -46.269203     -130.009674      -41.817619
 H         -44.864059     -130.044800      -40.637463
 H         -46.027489     -126.191299      -42.415855
 H         -46.841866     -127.623505      -43.066013
 H         -44.608261     -128.322632      -42.503708
 H         -44.746655     -127.440292      -40.975395
