20
 generated by VMD
 C         -19.976267      -61.686329      -16.381035
 N         -19.901512      -61.099072      -17.353043
 H         -21.548161      -64.263359      -17.367775
 H         -20.263948      -62.189842      -15.429497
 C         -22.641216      -64.123795      -17.344490
 C         -23.417095      -63.707981      -18.515570
 C         -23.287735      -64.276535      -16.033607
 C         -24.573925      -64.650864      -18.767065
 C         -24.577219      -65.006668      -16.118176
 C         -25.360744      -64.801620      -17.460449
 H         -22.850155      -63.496246      -19.419653
 H         -23.841581      -62.744999      -18.293648
 H         -22.661263      -64.876663      -15.383942
 H         -23.546082      -63.395645      -15.513779
 H         -24.238302      -65.651520      -18.991241
 H         -25.260801      -64.196930      -19.546864
 H         -25.240103      -64.917793      -15.269473
 H         -24.226225      -66.062035      -16.126829
 H         -25.963648      -65.770248      -17.527977
 H         -26.084068      -63.957115      -17.199446
