20
 generated by VMD
 C         -76.538773     -203.105240      -66.596519
 N         -77.303520     -203.563049      -65.860672
 H         -75.754509     -200.213348      -69.099442
 H         -75.907127     -202.731430      -67.424286
 C         -74.756615     -199.833038      -68.956886
 C         -74.790962     -198.416412      -68.542496
 C         -73.641968     -200.365479      -69.848930
 C         -73.497704     -197.787659      -68.804550
 C         -73.218071     -199.310623      -70.877480
 C         -72.780533     -198.052139      -70.124825
 H         -75.098412     -198.285995      -67.532898
 H         -75.459663     -197.922943      -69.165718
 H         -72.811157     -200.611649      -69.272293
 H         -73.781540     -201.307877      -70.374413
 H         -72.839661     -197.685883      -67.940796
 H         -73.802826     -196.718292      -68.923058
 H         -74.097816     -199.092422      -71.475441
 H         -72.319298     -199.746521      -71.377220
 H         -71.696739     -198.171265      -69.834663
 H         -72.810226     -197.037689      -70.592522
