20
 generated by VMD
 C         -22.434397      -52.700123      -12.072309
 N         -23.523924      -52.417290      -12.365265
 H         -19.968666      -54.087349      -14.358097
 H         -21.304068      -53.207714      -12.226584
 C         -18.995819      -53.715595      -14.108288
 C         -18.610558      -52.313511      -14.062691
 C         -18.280859      -54.798859      -13.345608
 C         -17.143551      -52.167625      -14.380886
 C         -17.175526      -54.187317      -12.541298
 C         -16.371416      -53.043358      -13.256824
 H         -18.821384      -51.850826      -13.087105
 H         -19.213331      -51.672726      -14.723319
 H         -18.948261      -55.299217      -12.640915
 H         -17.974333      -55.454071      -14.173412
 H         -16.889977      -51.111980      -14.285250
 H         -16.864914      -52.481621      -15.372610
 H         -16.515568      -54.954380      -12.286490
 H         -17.536964      -53.752762      -11.566169
 H         -16.086094      -52.268246      -12.497852
 H         -15.388226      -53.405518      -13.712950
