20
 generated by VMD
 C         -67.358788     -192.205719      -67.250191
 N         -68.181366     -192.800598      -66.645821
 H         -69.837654     -190.025284      -65.204216
 H         -66.640282     -191.814499      -67.900223
 C         -70.886192     -190.157455      -65.123581
 C         -71.722794     -190.787888      -66.135803
 C         -71.610054     -189.493591      -63.960396
 C         -72.810837     -191.789139      -65.632004
 C         -73.004387     -189.838882      -63.859024
 C         -73.350479     -191.342361      -64.167084
 H         -71.095581     -191.296036      -66.785362
 H         -72.128693     -190.074234      -66.851891
 H         -71.157707     -189.800323      -63.041275
 H         -71.444565     -188.402512      -64.121162
 H         -72.380089     -192.775909      -65.534966
 H         -73.727806     -191.900009      -66.246071
 H         -73.595688     -189.172180      -64.549629
 H         -73.477051     -189.594162      -62.927135
 H         -72.700851     -191.838287      -63.464504
 H         -74.481819     -191.710022      -64.278534
