20
 generated by VMD
 C          -9.022309      -23.728401        2.685897
 N          -8.402741      -24.642391        2.774715
 H          -8.478544      -23.368011       -1.228129
 H          -9.136932      -22.700617       -2.627481
 C          -8.210380      -22.971283       -2.224424
 C          -7.682292      -24.013912       -3.187254
 C          -7.307317      -21.806959       -2.057316
 C          -7.282702      -23.478855       -4.529955
 C          -6.884581      -21.240423       -3.384366
 C          -6.372425      -22.253744       -4.406534
 H          -8.362362      -24.917492       -3.292767
 H          -6.866402      -24.458387       -2.670049
 H          -7.907990      -21.032427       -1.501603
 H          -6.397261      -22.108263       -1.528898
 H          -8.200188      -23.223421       -5.041154
 H          -6.823434      -24.225426       -5.150455
 H          -6.173278      -20.423975       -3.145696
 H          -7.770953      -20.808264       -3.878474
 H          -6.321739      -21.660954       -5.365912
 H          -5.368262      -22.667559       -4.109853
