20
 generated by VMD
 C         -19.394039      -60.646770      -17.837641
 N         -20.079596      -59.715954      -17.830002
 H         -22.768677      -60.026310      -16.049316
 H         -18.574482      -61.303532      -18.005562
 C         -23.177240      -61.005878      -16.045065
 C         -23.316063      -61.671612      -17.412031
 C         -23.572979      -61.773697      -14.791577
 C         -22.580170      -63.030533      -17.390354
 C         -23.059317      -63.156670      -14.948394
 C         -23.298889      -63.846294      -16.276249
 H         -22.904076      -60.997314      -18.164148
 H         -24.390541      -61.857292      -17.419659
 H         -23.314051      -61.277000      -13.939582
 H         -24.652750      -61.871040      -14.868254
 H         -21.516645      -62.858154      -17.024557
 H         -22.588320      -63.650463      -18.290771
 H         -23.466415      -63.792007      -14.155238
 H         -21.974798      -63.221355      -14.678913
 H         -22.842751      -64.828476      -16.205307
 H         -24.375519      -63.952816      -16.589825
