20
 generated by VMD
 C         -35.361225      -97.546432      -25.520346
 N         -35.179104      -97.690567      -26.668800
 H         -35.765503      -94.415810      -27.840155
 H         -35.526588      -97.515930      -24.393795
 C         -35.359341      -94.471870      -28.825619
 C         -35.907295      -95.397324      -29.825771
 C         -33.965237      -94.069656      -28.973351
 C         -35.621613      -94.930771      -31.242785
 C         -33.820602      -93.443390      -30.373388
 C         -34.255665      -94.386818      -31.573847
 H         -36.931412      -95.554230      -29.592138
 H         -35.410187      -96.379578      -29.689543
 H         -33.665298      -93.282707      -28.312132
 H         -33.230152      -94.875389      -28.715139
 H         -36.383373      -94.209717      -31.542891
 H         -35.833771      -95.810654      -31.965532
 H         -32.778736      -93.225815      -30.425514
 H         -34.278507      -92.385612      -30.597601
 H         -34.445747      -93.701553      -32.492447
 H         -33.631786      -95.227806      -31.679726
