20
 generated by VMD
 C         -77.854095     -203.214661      -69.599358
 N         -78.316345     -204.113968      -69.003868
 H         -75.254387     -202.168610      -67.247810
 H         -77.476509     -202.340439      -70.191162
 C         -74.923706     -201.605057      -68.145241
 C         -75.045319     -200.181915      -68.528076
 C         -73.851234     -202.374481      -68.826973
 C         -74.725250     -199.912064      -70.002388
 C         -73.030510     -201.673141      -69.879280
 C         -73.966873     -200.900543      -70.876122
 H         -74.320419     -199.624649      -67.922234
 H         -76.008789     -199.777954      -68.291496
 H         -73.199333     -202.809952      -68.096886
 H         -74.307945     -203.276260      -69.316162
 H         -74.128899     -199.016251      -70.188850
 H         -75.696457     -199.731415      -70.557991
 H         -72.594315     -202.412567      -70.560349
 H         -72.208786     -201.148102      -69.421539
 H         -73.427483     -200.299545      -71.665001
 H         -74.654938     -201.460678      -71.410851
