20
 generated by VMD
 C         -40.844376     -103.494774      -35.626194
 N         -41.359737     -104.526176      -35.521343
 H         -38.852818     -104.498756      -34.075405
 H         -40.630726     -102.453278      -35.747879
 C         -38.551781     -105.002464      -33.156769
 C         -37.115208     -104.825409      -32.809017
 C         -39.338108     -106.192650      -32.736446
 C         -36.897358     -105.547424      -31.400599
 C         -38.951050     -107.037354      -31.558575
 C         -37.441689     -106.983574      -31.495899
 H         -37.020855     -103.762024      -32.707932
 H         -36.431152     -105.143272      -33.595848
 H         -40.407043     -105.937767      -32.611885
 H         -39.271465     -106.896065      -33.587410
 H         -37.536182     -104.886375      -30.751154
 H         -35.821156     -105.656555      -31.117821
 H         -39.304207     -108.000198      -31.687815
 H         -39.464783     -106.531647      -30.732912
 H         -37.183846     -107.292755      -30.482019
 H         -36.943127     -107.657509      -32.226086
