20
 generated by VMD
 C         -38.348354     -109.708801      -36.471497
 N         -37.627003     -109.042419      -35.882767
 H         -40.775364     -111.325279      -36.897335
 H         -39.121120     -110.262360      -36.898094
 C         -41.377964     -111.767960      -36.119492
 C         -42.043018     -113.058594      -36.345333
 C         -41.976486     -110.732506      -35.218422
 C         -42.388412     -113.785919      -35.016907
 C         -42.064285     -111.484505      -33.770702
 C         -42.783791     -112.887581      -33.897858
 H         -41.207981     -113.579414      -36.841599
 H         -42.998993     -112.951012      -36.997978
 H         -41.498405     -109.721146      -35.025757
 H         -43.002274     -110.458923      -35.585381
 H         -41.379627     -114.219696      -34.747856
 H         -42.989506     -114.622437      -35.139309
 H         -42.440170     -110.789001      -32.987774
 H         -41.009094     -111.761543      -33.448250
 H         -42.708256     -113.377403      -32.885746
 H         -43.935616     -112.730843      -34.062531
