20
 generated by VMD
 C         -41.586998     -119.419891      -34.503922
 N         -41.239532     -119.972229      -35.437366
 H         -43.223110     -118.231926      -36.616283
 H         -41.749428     -118.903374      -33.595219
 C         -43.788620     -118.259750      -37.615788
 C         -42.975979     -118.145134      -38.898556
 C         -45.146053     -117.536827      -37.640965
 C         -43.717323     -118.619667      -40.087315
 C         -45.993103     -117.901520      -38.927818
 C         -45.011368     -117.891312      -40.081352
 H         -42.018959     -118.621078      -38.767200
 H         -42.810013     -117.059837      -39.005917
 H         -45.576550     -117.785561      -36.690468
 H         -45.113800     -116.353302      -37.718307
 H         -43.860043     -119.747765      -39.927616
 H         -43.116013     -118.470718      -40.974846
 H         -46.840118     -117.105675      -38.882656
 H         -46.503536     -118.867043      -38.716488
 H         -45.585968     -118.312782      -40.837254
 H         -44.891594     -116.796989      -40.310314
