20
 generated by VMD
 C         -38.389732     -112.992035      -36.414570
 N         -37.238113     -112.806297      -36.344082
 H         -41.288799     -114.936638      -34.808357
 H         -39.451206     -112.858635      -36.605286
 C         -42.234726     -114.753677      -35.385406
 C         -42.058735     -114.678047      -36.910400
 C         -43.507675     -114.248291      -34.782658
 C         -43.366425     -114.960167      -37.645504
 C         -44.799767     -114.333435      -35.604843
 C         -44.598278     -114.205284      -37.147869
 H         -41.210396     -115.336365      -37.149494
 H         -41.800438     -113.600746      -36.878059
 H         -43.679348     -114.699997      -33.755730
 H         -43.346352     -113.156227      -34.796513
 H         -43.602955     -116.063225      -37.643700
 H         -43.241821     -114.688744      -38.674084
 H         -45.476933     -113.444397      -35.405354
 H         -45.205948     -115.324570      -35.253429
 H         -45.703503     -114.408119      -37.587833
 H         -44.432461     -113.138802      -37.410995
