20
 generated by VMD
 C         -26.115524      -71.884018      -17.353636
 N         -26.723669      -72.573044      -16.661341
 H         -24.687910      -69.325134      -18.607582
 H         -25.680706      -71.091721      -18.009365
 C         -24.839746      -69.626068      -19.623478
 C         -24.104864      -70.713646      -20.422356
 C         -25.657661      -68.812721      -20.455759
 C         -25.116589      -71.711723      -21.130562
 C         -26.661453      -69.729195      -21.214571
 C         -26.080254      -70.840118      -22.026808
 H         -23.449255      -71.166031      -19.670589
 H         -23.411303      -70.326904      -21.142088
 H         -26.228662      -68.092422      -19.919529
 H         -25.016661      -68.150536      -21.100426
 H         -25.822132      -72.323639      -20.501015
 H         -24.568981      -72.324707      -21.809853
 H         -27.066872      -68.913429      -21.798260
 H         -27.475634      -70.072395      -20.535570
 H         -26.921213      -71.287766      -22.515097
 H         -25.432804      -70.496117      -22.848059
