20
 generated by VMD
 C         -34.097527      -97.187035      -26.410496
 N         -34.808468      -97.193382      -25.500326
 H         -35.252434      -94.533318      -27.485600
 H         -33.526627      -97.030029      -27.235622
 C         -35.152618      -94.100418      -28.483431
 C         -36.003426      -94.772980      -29.505909
 C         -33.834602      -93.590416      -28.968821
 C         -35.973286      -94.213287      -30.942976
 C         -33.749763      -93.138382      -30.380543
 C         -34.498905      -94.129066      -31.338835
 H         -37.077881      -94.737137      -29.149256
 H         -35.715820      -95.820900      -29.575499
 H         -33.348560      -92.801025      -28.350800
 H         -33.259022      -94.487923      -28.904339
 H         -36.473515      -93.310616      -31.292982
 H         -36.347610      -94.958839      -31.606550
 H         -32.669209      -92.864037      -30.728294
 H         -34.117569      -92.145401      -30.318834
 H         -34.388565      -93.597260      -32.456192
 H         -33.924809      -95.072678      -31.402655
