20
 generated by VMD
 C         -67.474083     -192.550323      -67.033218
 N         -68.615349     -192.727783      -66.817505
 H         -69.748825     -190.207550      -65.216225
 H         -66.379211     -192.235336      -67.018776
 C         -70.877525     -190.169952      -65.097389
 C         -71.706856     -190.841812      -66.227654
 C         -71.612389     -189.740372      -63.856060
 C         -72.577293     -191.927185      -65.648422
 C         -73.103256     -189.980942      -64.044632
 C         -73.378441     -191.465027      -64.472420
 H         -71.087234     -191.401718      -67.043533
 H         -72.214607     -190.062057      -66.860039
 H         -71.198463     -190.320831      -62.889942
 H         -71.497353     -188.693527      -63.552929
 H         -71.976921     -192.861908      -65.345078
 H         -73.243156     -192.028992      -66.516899
 H         -73.511406     -189.325516      -64.802299
 H         -73.649292     -189.699234      -63.098717
 H         -73.172333     -192.250687      -63.675804
 H         -74.352448     -191.527023      -64.725639
