20
 generated by VMD
 C         -80.142921     -205.545044      -72.213898
 N         -79.999496     -206.662811      -72.186401
 H         -77.276093     -204.190887      -70.997116
 H         -80.483337     -204.505920      -72.016655
 C         -76.430984     -204.840652      -71.249245
 C         -75.157692     -203.983887      -71.292038
 C         -76.331871     -206.209335      -70.648788
 C         -74.661636     -203.887054      -69.862793
 C         -75.555023     -206.047852      -69.279602
 C         -74.247757     -205.231262      -69.264999
 H         -75.259560     -203.084137      -71.861710
 H         -74.343399     -204.596115      -71.824341
 H         -77.168335     -206.847168      -70.401657
 H         -75.633980     -206.861130      -71.294777
 H         -75.459473     -203.503433      -69.261902
 H         -73.764893     -203.221741      -70.027313
 H         -75.544151     -207.052704      -68.880280
 H         -76.196075     -205.487137      -68.472038
 H         -73.912552     -205.115112      -68.244980
 H         -73.473259     -205.754425      -69.880943
