20
 generated by VMD
 C         -30.223495      -80.157036      -26.352036
 N         -29.303513      -79.459106      -26.556009
 H         -28.523878      -82.727623      -25.321068
 H         -31.101257      -80.901955      -26.137108
 C         -29.262102      -82.851265      -24.581194
 C         -29.021513      -82.083458      -23.387024
 C         -30.076746      -84.057770      -24.719450
 C         -30.288685      -82.027840      -22.571981
 C         -31.214018      -84.102768      -23.810320
 C         -30.834747      -83.427956      -22.364618
 H         -28.580601      -81.074104      -23.557079
 H         -28.286085      -82.479027      -22.762127
 H         -30.239792      -84.128838      -25.807789
 H         -29.429756      -84.941826      -24.500013
 H         -30.943924      -81.467827      -23.202330
 H         -30.131268      -81.577843      -21.514423
 H         -31.417404      -85.174980      -23.723223
 H         -32.147133      -83.618965      -24.187155
 H         -31.828493      -83.507805      -21.715376
 H         -30.218132      -84.177742      -21.896875
