20
 generated by VMD
 C         -22.580427      -52.291756      -11.667776
 N         -22.280979      -52.686806      -10.616773
 H         -19.936628      -52.523933      -14.359888
 H         -22.523453      -51.843559      -12.517834
 C         -18.932270      -52.307259      -13.917753
 C         -17.951471      -51.730656      -14.813831
 C         -18.464462      -52.830246      -12.612988
 C         -16.459431      -52.215240      -14.578651
 C         -17.166550      -52.210484      -12.085260
 C         -16.060238      -52.113678      -13.103276
 H         -17.949099      -50.587276      -14.892002
 H         -18.245867      -52.101532      -15.822821
 H         -19.267822      -52.749954      -11.901918
 H         -18.242947      -53.887291      -12.742759
 H         -15.848365      -51.599564      -15.237424
 H         -16.372786      -53.268490      -14.895521
 H         -16.698822      -52.744835      -11.194398
 H         -17.464191      -51.183605      -11.706470
 H         -15.466346      -51.224453      -12.795135
 H         -15.441899      -53.038216      -12.995937
