20
 generated by VMD
 C         -59.422359     -158.433548      -57.426517
 N         -58.463757     -158.351486      -58.070633
 H         -60.030655     -158.828201      -53.898327
 H         -60.332603     -158.539688      -56.897045
 C         -59.781109     -159.648941      -53.282547
 C         -58.558361     -159.612564      -52.484108
 C         -60.670448     -160.858932      -53.444111
 C         -58.628735     -160.559479      -51.226654
 C         -60.760902     -161.555679      -52.098915
 C         -59.340469     -161.806549      -51.582691
 H         -58.415588     -158.519577      -52.073380
 H         -57.656578     -159.951843      -53.061604
 H         -61.619881     -160.572403      -53.897549
 H         -60.310089     -161.660675      -54.047523
 H         -59.244453     -160.134796      -50.374989
 H         -57.615566     -160.714813      -50.807838
 H         -61.375751     -162.456161      -52.229092
 H         -61.120144     -160.886246      -51.364113
 H         -59.528366     -162.365799      -50.622086
 H         -58.798016     -162.578445      -52.218174
