20
 generated by VMD
 C         -79.733109     -205.410004      -71.715584
 N         -79.841637     -206.531586      -71.552574
 H         -76.152267     -204.237274      -72.102219
 H         -79.629471     -204.348953      -71.672935
 C         -76.153999     -204.041000      -71.018318
 C         -75.453445     -202.878265      -70.474106
 C         -76.434334     -205.159515      -70.014648
 C         -74.017403     -203.296326      -70.304199
 C         -75.162712     -205.316605      -69.189240
 C         -73.827492     -204.757187      -69.744049
 H         -76.000435     -202.526505      -69.554291
 H         -75.582436     -202.146362      -71.215523
 H         -77.365494     -204.765991      -69.550911
 H         -76.679062     -206.149506      -70.406807
 H         -73.614731     -202.526810      -69.530090
 H         -73.469795     -203.024612      -71.254585
 H         -74.998459     -206.406448      -68.910530
 H         -75.376358     -204.910294      -68.245102
 H         -72.990791     -204.703369      -68.985909
 H         -73.522881     -205.412842      -70.542412
