20
 generated by VMD
 C         -79.745552     -206.921371      -75.615326
 N         -80.049171     -207.340561      -74.606590
 H         -77.062820     -207.807739      -73.069794
 H         -79.654854     -206.385254      -76.595337
 C         -76.897301     -208.406799      -72.121948
 C         -75.710426     -207.955612      -71.330254
 C         -77.770828     -209.496445      -71.649323
 C         -75.985054     -207.833099      -69.918236
 C         -78.226776     -208.953247      -70.280876
 C         -76.869911     -208.937027      -69.362358
 H         -75.332047     -207.075241      -71.848045
 H         -74.869194     -208.627380      -71.516075
 H         -78.616989     -209.660553      -72.320625
 H         -77.376656     -210.492508      -71.413162
 H         -76.493362     -206.891571      -69.786705
 H         -75.069908     -207.573425      -69.428268
 H         -78.862267     -209.584473      -69.733284
 H         -78.749283     -207.947647      -70.435371
 H         -77.277977     -208.554810      -68.378685
 H         -76.353546     -209.888214      -69.138664
