20
 generated by VMD
 C         -37.976559     -109.728302      -36.432796
 N         -37.434872     -108.869919      -35.888329
 H         -40.449722     -112.459938      -36.922264
 H         -38.567871     -110.519417      -36.908134
 C         -41.220020     -112.574173      -36.163059
 C         -42.397026     -113.513069      -36.452034
 C         -41.776058     -111.424171      -35.285954
 C         -43.031727     -114.056633      -35.173275
 C         -42.237980     -111.980293      -33.978020
 C         -43.451641     -112.941643      -34.278091
 H         -42.087528     -114.329094      -37.142601
 H         -43.287117     -112.934456      -36.852066
 H         -40.980671     -110.592476      -35.194450
 H         -42.545410     -111.044289      -36.030796
 H         -42.239475     -114.648109      -34.600616
 H         -43.775169     -114.951492      -35.341965
 H         -42.562569     -111.095291      -33.337585
 H         -41.448151     -112.559555      -33.366863
 H         -43.903324     -113.317635      -33.445919
 H         -44.269833     -112.424248      -34.877823
