20
 generated by VMD
 C         -46.488613     -124.436256      -36.245636
 N         -46.987644     -125.294685      -35.624783
 H         -44.399860     -121.704498      -37.843941
 H         -46.059116     -123.528404      -36.719337
 C         -44.521484     -121.620071      -38.966900
 C         -43.242764     -121.595772      -39.833309
 C         -45.756756     -120.854439      -39.619904
 C         -43.580925     -121.962379      -41.312973
 C         -45.906849     -121.251724      -41.082977
 C         -44.638012     -120.923843      -41.811249
 H         -42.613472     -122.463852      -39.571163
 H         -42.567028     -120.804054      -39.490089
 H         -46.746899     -120.998055      -39.098900
 H         -45.461678     -119.852257      -39.581856
 H         -43.945816     -123.056442      -41.444126
 H         -42.659191     -121.769096      -41.865028
 H         -46.731438     -120.585968      -41.353352
 H         -46.327541     -122.371773      -41.228474
 H         -44.948326     -121.152527      -42.797153
 H         -44.277985     -119.844070      -41.651585
