20
 generated by VMD
 C         -72.655457     -199.141663      -65.581276
 N         -72.230194     -199.811081      -64.743484
 H         -71.199043     -196.146027      -67.322624
 H         -73.232956     -198.581085      -66.334671
 C         -72.151962     -195.766724      -67.699707
 C         -72.842476     -194.542404      -67.210136
 C         -72.606422     -196.337173      -69.008827
 C         -74.199898     -194.310806      -67.965698
 C         -74.043213     -196.699234      -68.873856
 C         -74.819862     -195.733383      -68.023880
 H         -72.158592     -193.709763      -67.260712
 H         -73.066368     -194.605927      -66.194908
 H         -72.384842     -195.567307      -69.807762
 H         -72.127205     -197.343643      -69.260147
 H         -74.138458     -193.649658      -68.865791
 H         -74.753349     -193.629303      -67.306847
 H         -74.132851     -197.669479      -68.373703
 H         -74.513855     -196.915833      -69.844513
 H         -75.854507     -195.605286      -68.515762
 H         -75.196251     -196.050613      -66.962830
