20
 generated by VMD
 C         -47.716179     -136.635773      -45.935337
 N         -46.894440     -136.056625      -46.628361
 H         -51.038033     -135.541214      -45.738461
 H         -48.303745     -137.140305      -45.162540
 C         -51.611523     -136.373123      -45.302025
 C         -52.080986     -137.460709      -46.164635
 C         -51.860588     -136.283493      -43.830715
 C         -52.038090     -138.810013      -45.396816
 C         -51.756531     -137.642792      -43.170677
 C         -52.412712     -138.767990      -43.962292
 H         -51.511410     -137.641449      -47.028522
 H         -53.156109     -137.149063      -46.413330
 H         -51.086086     -135.632904      -43.313343
 H         -52.884583     -135.949997      -43.593643
 H         -51.000935     -139.185654      -45.464928
 H         -52.562996     -139.484055      -46.129272
 H         -52.160259     -137.653839      -42.170979
 H         -50.629303     -137.677078      -42.994354
 H         -51.983749     -139.737442      -43.524548
 H         -53.479885     -138.532181      -43.950638
