20
 generated by VMD
 C         -19.916721      -61.310703      -16.922695
 N         -19.675631      -60.576515      -16.076208
 H         -22.145266      -62.218826      -18.338680
 H         -20.112438      -62.097733      -17.519114
 C         -22.905750      -62.759254      -17.777584
 C         -24.023449      -63.232552      -18.590618
 C         -22.863094      -63.001526      -16.289669
 C         -24.455120      -64.595131      -18.119261
 C         -23.535072      -64.215195      -15.758112
 C         -24.637962      -64.754028      -16.542000
 H         -23.673151      -63.304062      -19.636852
 H         -24.950048      -62.558010      -18.588007
 H         -21.805073      -63.048996      -16.157286
 H         -23.255043      -62.127518      -15.646155
 H         -23.519293      -65.228882      -18.424545
 H         -25.373230      -64.880547      -18.701824
 H         -23.654041      -64.274200      -14.688768
 H         -22.740381      -64.950874      -15.827755
 H         -24.838041      -65.811470      -16.377548
 H         -25.544600      -64.165314      -16.231182
