20
 generated by VMD
 C         -27.643673      -81.471115      -26.870113
 N         -28.307394      -82.022064      -27.665298
 H         -30.551384      -83.690384      -25.902786
 H         -26.914598      -80.847626      -26.209658
 C         -31.163939      -84.278801      -25.273775
 C         -30.617800      -84.219025      -23.878508
 C         -31.672626      -85.607323      -25.751108
 C         -31.807203      -84.746986      -22.935879
 C         -32.794510      -86.023811      -24.806841
 C         -32.342918      -86.118813      -23.351719
 H         -30.183584      -83.162628      -23.586611
 H         -29.873739      -84.965950      -23.715307
 H         -32.012478      -85.587440      -26.830170
 H         -30.767069      -86.285042      -25.625847
 H         -32.538868      -83.846527      -22.846945
 H         -31.436968      -84.816650      -21.958826
 H         -33.231010      -86.928452      -25.003059
 H         -33.646832      -85.300728      -24.790941
 H         -33.148636      -86.330505      -22.688278
 H         -31.587881      -86.832039      -23.188183
