20
 generated by VMD
 C         -23.472301      -53.218056      -13.911138
 N         -24.094753      -53.088627      -14.952060
 H         -20.639118      -55.327503      -14.905561
 H         -22.905994      -53.063965      -13.142633
 C         -19.563185      -55.303379      -14.491963
 C         -19.046154      -54.014065      -13.932394
 C         -18.563225      -56.510189      -14.595024
 C         -18.303581      -54.420738      -12.654609
 C         -17.375553      -56.573246      -13.667881
 C         -17.075399      -55.267536      -12.985377
 H         -19.941231      -53.405552      -13.594036
 H         -18.375113      -53.445171      -14.646043
 H         -19.129009      -57.401291      -14.417313
 H         -18.232571      -56.569786      -15.679532
 H         -18.870678      -55.035973      -11.952741
 H         -18.052992      -53.485317      -12.095790
 H         -16.482992      -56.996143      -14.130624
 H         -17.622171      -57.244049      -12.824648
 H         -16.365671      -55.350155      -12.201869
 H         -16.470459      -54.680828      -13.681759
