20
 generated by VMD
 C         -10.968764      -34.150986       -9.155389
 N         -11.334981      -33.294769       -8.521444
 H         -11.465430      -37.761784       -8.079956
 H         -12.250724      -37.063599       -6.632787
 C         -12.330754      -37.893326       -7.344358
 C         -12.384197      -39.148083       -6.525363
 C         -13.669437      -37.592396       -8.007868
 C         -13.539325      -39.257618       -5.557087
 C         -14.791137      -37.549004       -7.030599
 C         -14.833909      -38.897774       -6.266068
 H         -11.444195      -39.164169       -5.962191
 H         -12.361023      -40.034893       -7.121958
 H         -13.604654      -36.652618       -8.581986
 H         -13.845947      -38.404465       -8.707656
 H         -13.364505      -38.646221       -4.677548
 H         -13.615155      -40.245132       -5.227152
 H         -15.775741      -37.490677       -7.576792
 H         -14.741365      -36.715729       -6.293893
 H         -15.685271      -38.882801       -5.504457
 H         -15.108110      -39.712017       -6.959484
