20
 generated by VMD
 C         -48.457180     -135.731140      -46.296749
 N         -47.572533     -135.939804      -45.557945
 H         -51.952286     -135.027206      -45.840218
 H         -48.975906     -135.628830      -47.218399
 C         -51.834843     -135.751923      -45.157017
 C         -52.452789     -137.137100      -45.566257
 C         -51.232403     -135.602661      -43.836510
 C         -51.631607     -138.274139      -45.108109
 C         -50.399841     -136.784714      -43.369984
 C         -51.122913     -138.193329      -43.679096
 H         -52.492580     -137.104416      -46.634972
 H         -53.536842     -137.219818      -45.253288
 H         -50.572685     -134.689514      -43.928246
 H         -52.029976     -135.384705      -43.156723
 H         -50.739178     -138.314087      -45.718143
 H         -52.185215     -139.224121      -45.099758
 H         -50.272648     -136.620483      -42.331562
 H         -49.383991     -136.787842      -43.784874
 H         -50.492779     -139.022583      -43.500248
 H         -51.839401     -138.458618      -42.992382
