20
 generated by VMD
 C         -41.456249     -120.199158      -33.990093
 N         -42.024181     -121.050224      -34.491146
 H         -43.442135     -119.077827      -37.184849
 H         -40.994034     -119.460968      -33.276684
 C         -43.972679     -118.869865      -38.175266
 C         -43.130352     -118.591278      -39.431152
 C         -45.308876     -118.245728      -38.089104
 C         -43.927341     -118.854424      -40.665131
 C         -46.125645     -118.314728      -39.375317
 C         -45.172729     -117.965805      -40.545609
 H         -42.245888     -119.344978      -39.390888
 H         -42.751888     -117.554100      -39.415604
 H         -45.842499     -118.621552      -37.116421
 H         -45.278339     -117.167221      -37.944561
 H         -44.168728     -119.868324      -40.972206
 H         -43.290798     -118.433784      -41.520416
 H         -46.995846     -117.760117      -39.272297
 H         -46.473885     -119.314621      -39.544857
 H         -45.805901     -118.028816      -41.437298
 H         -45.055500     -116.916527      -40.494438
