20
 generated by VMD
 C         -68.973793     -180.771622      -61.135246
 N         -69.903404     -181.015289      -60.478722
 H         -67.231865     -178.393387      -59.511730
 H         -68.094109     -180.641373      -61.733807
 C         -66.279251     -177.856415      -59.825985
 C         -65.873878     -177.915680      -61.233501
 C         -65.349899     -177.297165      -58.825798
 C         -64.992477     -176.644577      -61.679535
 C         -64.630043     -176.018616      -59.317886
 C         -63.878490     -176.396347      -60.684525
 H         -66.712761     -178.098694      -61.913620
 H         -65.208740     -178.724625      -61.388950
 H         -66.044044     -177.182510      -57.894478
 H         -64.650368     -178.079208      -58.599342
 H         -65.820595     -175.817871      -61.873947
 H         -64.682945     -176.873856      -62.730228
 H         -63.849464     -175.802948      -58.619122
 H         -65.394554     -175.231400      -59.295387
 H         -63.229153     -175.418289      -60.957863
 H         -63.239964     -177.320312      -60.526455
