20
 generated by VMD
 C         -58.398777     -158.990082      -58.067501
 N         -59.191631     -159.197693      -57.185780
 H         -59.027885     -160.359116      -54.852188
 H         -57.692436     -158.867889      -58.873188
 C         -59.409126     -160.897583      -53.963989
 C         -58.623917     -161.170151      -52.793861
 C         -60.684689     -161.611343      -54.014496
 C         -59.461109     -161.211212      -51.479637
 C         -61.540417     -161.882263      -52.811646
 C         -60.657730     -162.135147      -51.594341
 H         -57.902817     -160.322342      -52.581867
 H         -57.959682     -161.971054      -53.014973
 H         -61.282093     -161.137161      -54.724567
 H         -60.296463     -162.583618      -54.424107
 H         -59.739403     -160.226532      -51.207207
 H         -58.945850     -161.612839      -50.576153
 H         -62.197552     -162.734512      -52.962780
 H         -62.076771     -161.004303      -52.557632
 H         -61.330139     -162.076843      -50.792404
 H         -60.474602     -163.169647      -51.517269
