20
 generated by VMD
 C         -50.627354     -130.913635      -46.412239
 N         -50.281883     -130.997330      -47.469707
 H         -48.275299     -131.951309      -44.322933
 H         -51.139309     -130.664536      -45.521923
 C         -48.541809     -132.327545      -43.325119
 C         -49.188831     -133.693237      -43.120750
 C         -48.431217     -131.374725      -42.115211
 C         -48.528061     -134.361603      -41.941479
 C         -47.874916     -132.156174      -40.913849
 C         -48.498600     -133.535782      -40.673447
 H         -48.984886     -134.330917      -43.957798
 H         -50.270355     -133.637726      -42.870911
 H         -47.853771     -130.602783      -42.446617
 H         -49.456802     -131.072357      -41.861134
 H         -47.460789     -134.606567      -42.056255
 H         -48.991386     -135.288635      -41.642616
 H         -48.027946     -131.617798      -39.939678
 H         -46.855610     -132.089493      -40.929173
 H         -47.813396     -133.923706      -39.923038
 H         -49.563389     -133.377762      -40.375973
