20
 generated by VMD
 C         -15.223007      -46.929012       -6.264045
 N         -15.176794      -47.104080       -5.154389
 H         -15.967140      -46.176567       -9.694057
 H         -14.960452      -45.889050      -10.990479
 C         -16.026690      -45.919899      -10.749698
 C         -16.444267      -44.462063      -10.955930
 C         -16.802650      -46.971794      -11.575608
 C         -16.385622      -44.187511      -12.451642
 C         -16.815311      -46.620903      -13.131523
 C         -17.216343      -45.161694      -13.273634
 H         -15.637170      -43.861084      -10.460627
 H         -17.419556      -44.203720      -10.519699
 H         -16.370474      -47.971340      -11.424596
 H         -17.895092      -46.990566      -11.269408
 H         -15.374326      -44.239113      -12.879500
 H         -16.749714      -43.169426      -12.569301
 H         -17.533911      -47.207924      -13.606851
 H         -15.773585      -46.777935      -13.501254
 H         -17.222599      -44.923866      -14.320194
 H         -18.240604      -45.097851      -12.913137
