20
 generated by VMD
 C         -38.274990     -114.983864      -35.449005
 N         -39.106491     -115.254837      -34.717083
 H         -41.354023     -115.520355      -36.837490
 H         -37.407211     -114.538513      -35.919144
 C         -42.427975     -115.393433      -37.078262
 C         -42.880383     -115.233070      -38.491707
 C         -43.458912     -115.286804      -35.944817
 C         -44.129803     -116.036400      -38.726486
 C         -44.789291     -115.893517      -36.163467
 C         -45.272400     -115.737053      -37.730732
 H         -42.052959     -115.399704      -39.185326
 H         -43.186317     -114.188057      -38.695583
 H         -43.083591     -115.548927      -34.948753
 H         -43.661980     -114.212433      -35.805763
 H         -43.891094     -117.131233      -38.688999
 H         -44.543949     -115.789139      -39.693363
 H         -45.661434     -115.410843      -35.690147
 H         -44.842262     -116.958717      -35.846340
 H         -46.082554     -116.469902      -37.684048
 H         -45.617836     -114.740028      -37.749386
