20
 generated by VMD
 C         -30.186090      -74.107018      -20.750713
 N         -30.032335      -75.176857      -20.372599
 H         -26.999699      -74.628235      -19.258030
 H         -30.542221      -73.036346      -20.953117
 C         -26.695568      -74.346962      -20.268320
 C         -26.104322      -75.518593      -20.975899
 C         -25.967079      -73.027527      -20.396721
 C         -26.002859      -75.202515      -22.461874
 C         -25.923092      -72.734367      -21.854723
 C         -25.242586      -73.829193      -22.599674
 H         -26.922302      -76.438393      -20.937302
 H         -25.118475      -75.810776      -20.599894
 H         -26.578014      -72.394333      -19.802011
 H         -24.886086      -73.123863      -19.910423
 H         -27.018253      -75.257126      -22.795931
 H         -25.440248      -75.926376      -23.020054
 H         -25.207670      -71.809601      -21.982597
 H         -26.897549      -72.274849      -22.336100
 H         -25.235285      -73.547966      -23.618116
 H         -24.184111      -73.879639      -22.324600
