20
 generated by VMD
 C         -67.780083     -192.814621      -66.550133
 N         -68.803024     -192.866531      -67.156609
 H         -69.956245     -189.834290      -65.456047
 H         -67.052460     -192.686523      -65.812813
 C         -70.877365     -190.259705      -65.212486
 C         -71.630402     -190.870178      -66.328300
 C         -71.575600     -190.134079      -63.854286
 C         -72.429108     -192.025925      -65.736092
 C         -73.175499     -190.275635      -64.000580
 C         -73.511475     -191.496109      -64.881447
 H         -71.025185     -191.268707      -67.109901
 H         -72.334419     -189.984238      -66.664345
 H         -71.152504     -190.932709      -63.171757
 H         -71.463516     -189.088516      -63.414799
 H         -71.987122     -192.825043      -65.142250
 H         -72.857216     -192.660721      -66.562698
 H         -73.561951     -189.415146      -64.629150
 H         -73.658539     -190.298126      -63.017799
 H         -73.990730     -192.406937      -64.318344
 H         -74.304436     -191.221680      -65.436913
