20
 generated by VMD
 C         -39.760471     -100.333992      -30.626787
 N         -40.574795     -100.266144      -31.440575
 H         -37.034096     -102.726433      -30.768082
 H         -38.952702     -100.747505      -29.925671
 C         -36.701595     -101.753113      -30.837339
 C         -36.688599     -101.068924      -32.236519
 C         -35.444931     -101.471077      -30.059994
 C         -36.255184      -99.525307      -32.250088
 C         -35.084606      -99.967339      -30.080101
 C         -35.022720      -99.277870      -31.428312
 H         -37.698360     -101.063934      -32.706181
 H         -35.999084     -101.661491      -32.869812
 H         -35.437725     -101.843163      -28.982656
 H         -34.521107     -101.877304      -30.428339
 H         -37.035454      -98.841377      -31.907507
 H         -36.069077      -99.417244      -33.337257
 H         -34.164913      -99.779182      -29.606131
 H         -35.853409      -99.460381      -29.464920
 H         -34.617573      -98.235260      -31.235266
 H         -34.304195      -99.721756      -32.137650
