20
 generated by VMD
 C         -79.251404     -207.103027      -75.293114
 N         -78.798538     -207.124313      -76.406708
 H         -78.436005     -210.396606      -73.396042
 H         -79.562782     -206.974991      -74.286011
 C         -78.249916     -210.149353      -72.309792
 C         -77.084679     -209.214371      -72.203087
 C         -78.421898     -211.149216      -71.214134
 C         -76.896744     -208.547546      -70.879677
 C         -78.395447     -210.434448      -69.807281
 C         -77.051468     -209.688324      -69.726807
 H         -77.525360     -208.361267      -72.751053
 H         -76.192444     -209.516525      -72.785965
 H         -79.373291     -211.642273      -71.210945
 H         -77.590614     -211.889587      -71.333488
 H         -77.638283     -207.716675      -70.730225
 H         -75.972191     -208.049393      -70.662682
 H         -78.579308     -211.299423      -69.068611
 H         -79.210083     -209.731354      -69.685837
 H         -76.912903     -209.281677      -68.731819
 H         -76.219925     -210.427017      -69.717201
