20
 generated by VMD
 C         -13.968671      -28.177299       -3.384997
 N         -14.046797      -27.237572       -3.978930
 H         -10.235826      -28.779856       -2.577669
 H         -10.080677      -27.391422       -3.737552
 C          -9.537586      -28.216845       -3.231149
 C          -9.048847      -29.213623       -4.379457
 C          -8.405158      -27.550375       -2.441261
 C          -7.787181      -28.781912       -5.140125
 C          -7.317623      -27.047457       -3.315815
 C          -6.749076      -28.110283       -4.292555
 H          -9.886541      -29.591467       -4.921624
 H          -8.725532      -30.202648       -3.865042
 H          -8.797389      -26.741673       -1.782999
 H          -7.943387      -28.272123       -1.729439
 H          -8.079195      -28.092264       -5.922223
 H          -7.363259      -29.566036       -5.726136
 H          -6.522760      -26.571838       -2.760771
 H          -7.774303      -26.166204       -3.869785
 H          -5.926470      -27.653229       -4.897346
 H          -6.330160      -28.819338       -3.569092
