20
 generated by VMD
 C         -41.254787     -101.420204      -32.609245
 N         -41.865059     -101.549240      -33.585835
 H         -38.516422     -103.384705      -32.604294
 H         -40.645409     -101.551048      -31.680281
 C         -37.715050     -102.867119      -32.095001
 C         -36.512157     -102.871887      -32.944241
 C         -37.497993     -103.081772      -30.526623
 C         -35.329315     -102.224747      -32.337299
 C         -36.213612     -102.496048      -30.037130
 C         -35.093796     -102.777657      -30.964310
 H         -36.979198     -102.442223      -33.834961
 H         -36.366882     -103.953186      -33.159142
 H         -38.376659     -102.702972      -30.003101
 H         -37.596497     -104.248619      -30.430061
 H         -35.528263     -101.221519      -32.247612
 H         -34.447712     -102.356590      -32.945930
 H         -36.101662     -103.083000      -29.065527
 H         -36.130859     -101.471916      -29.767962
 H         -34.178562     -102.179428      -30.731230
 H         -34.949623     -103.834663      -30.985958
