20
 generated by VMD
 C         -21.481642      -65.798447      -17.097834
 N         -20.949785      -66.259186      -16.155127
 H         -24.166162      -63.842121      -18.065065
 H         -22.056803      -65.081520      -17.746855
 C         -24.573673      -64.819862      -18.452251
 C         -24.593878      -65.361565      -19.825260
 C         -25.282642      -65.672775      -17.374043
 C         -24.166353      -66.802391      -19.812918
 C         -25.031467      -67.153572      -17.542919
 C         -25.304398      -67.536613      -19.120405
 H         -23.808308      -64.853058      -20.342121
 H         -25.536201      -65.257347      -20.371817
 H         -25.038807      -65.213432      -16.337381
 H         -26.436718      -65.456360      -17.398891
 H         -23.145977      -66.933731      -19.306725
 H         -24.159826      -67.286263      -20.784592
 H         -25.761089      -67.767601      -16.938223
 H         -24.049217      -67.520653      -17.284050
 H         -25.179035      -68.632652      -19.174555
 H         -26.260401      -67.217491      -19.418224
