20
 generated by VMD
 C         -21.461315      -65.701614      -17.090111
 N         -20.913565      -66.204002      -16.193766
 H         -24.432516      -63.684120      -18.016724
 H         -21.896582      -65.563568      -17.983049
 C         -24.689709      -64.736031      -18.418085
 C         -24.478762      -65.186340      -19.816254
 C         -25.215792      -65.615448      -17.354254
 C         -24.271004      -66.767822      -19.869236
 C         -25.121365      -67.125786      -17.512486
 C         -25.140648      -67.648582      -18.981369
 H         -23.648626      -64.639137      -20.217333
 H         -25.296734      -65.095772      -20.448050
 H         -24.608118      -65.262527      -16.432709
 H         -26.282724      -65.240730      -17.060038
 H         -23.191004      -67.034409      -19.562973
 H         -24.463594      -67.198257      -20.873186
 H         -25.897865      -67.776642      -17.048756
 H         -24.168724      -67.451706      -17.092213
 H         -24.853552      -68.724655      -18.952749
 H         -26.139563      -67.508896      -19.252985
