20
 generated by VMD
 C         -70.333649     -182.491714      -63.689083
 N         -69.515709     -182.867676      -64.386383
 H         -68.521309     -180.140381      -62.421631
 H         -71.019478     -182.146362      -62.983078
 C         -67.957321     -180.488937      -61.526794
 C         -67.583359     -181.860870      -61.120392
 C         -67.174393     -179.383759      -60.834866
 C         -66.055420     -182.066925      -61.072266
 C         -65.714363     -179.724197      -60.516483
 C         -65.426285     -181.084717      -60.139965
 H         -68.107033     -182.468201      -61.831848
 H         -67.949867     -181.868439      -60.040760
 H         -67.114738     -178.538834      -61.469044
 H         -67.600266     -179.205307      -59.882011
 H         -65.653717     -182.101395      -62.013157
 H         -65.892097     -183.003113      -60.696117
 H         -65.349022     -179.050125      -59.712952
 H         -65.022301     -179.391022      -61.328632
 H         -64.322266     -181.179108      -60.285580
 H         -65.557793     -181.240707      -59.014854
