20
 generated by VMD
 C         -59.477585     -169.210556      -55.806110
 N         -59.679432     -168.561951      -54.816559
 H         -62.782997     -169.991196      -56.073124
 H         -59.356136     -169.643112      -56.807140
 C         -63.005814     -169.056854      -56.576878
 C         -62.843304     -168.794006      -58.019299
 C         -63.244766     -168.017792      -55.634151
 C         -63.569885     -167.659164      -58.559471
 C         -64.119095     -166.844223      -56.152950
 C         -63.564655     -166.459503      -57.577782
 H         -63.104088     -169.820511      -58.517212
 H         -61.821556     -168.700516      -58.233814
 H         -63.839725     -168.398819      -54.761082
 H         -62.295803     -167.535980      -55.232533
 H         -64.643143     -167.843933      -58.802383
 H         -62.955139     -167.466461      -59.464287
 H         -64.031105     -166.059494      -55.476830
 H         -65.162788     -166.977341      -56.185169
 H         -64.320473     -165.695801      -58.010738
 H         -62.560120     -165.938614      -57.495163
