20
 generated by VMD
 C         -31.664555      -78.706947      -26.400713
 N         -31.142046      -77.953514      -27.131193
 H         -29.409237      -79.763031      -24.255476
 H         -32.269085      -79.119812      -25.611134
 C         -29.012768      -80.747948      -23.983446
 C         -27.597574      -80.799751      -23.268864
 C         -29.895887      -81.868446      -23.613344
 C         -27.723434      -81.095421      -21.770906
 C         -30.021265      -82.086784      -22.071335
 C         -28.565237      -82.363205      -21.465937
 H         -27.072815      -79.872322      -23.488533
 H         -27.059483      -81.700745      -23.750179
 H         -30.879498      -81.743004      -23.950979
 H         -29.577795      -82.787689      -24.167349
 H         -28.141630      -80.239731      -21.214211
 H         -26.758856      -81.246750      -21.278412
 H         -30.563593      -82.931458      -21.785223
 H         -30.481348      -81.146965      -21.731609
 H         -28.675077      -82.334282      -20.335249
 H         -28.106466      -83.283752      -21.878569
