20
 generated by VMD
 C         -20.391987      -52.264656       -9.752029
 N         -21.101446      -51.613094      -10.344255
 H         -18.504232      -49.593395      -10.773071
 H         -19.317425      -52.772057       -9.345202
 C         -17.752867      -49.522617      -11.583987
 C         -17.019804      -50.760712      -11.863997
 C         -17.282133      -48.259449      -12.260769
 C         -16.887604      -50.963909      -13.382961
 C         -16.814770      -48.379982      -13.728775
 C         -16.227104      -49.756874      -14.026687
 H         -17.524529      -51.549988      -11.356441
 H         -16.026785      -50.704071      -11.396139
 H         -18.037195      -47.430729      -12.215391
 H         -16.432196      -47.909988      -11.681313
 H         -17.865561      -51.302696      -13.784967
 H         -16.103836      -51.751144      -13.543515
 H         -16.037077      -47.528244      -13.868400
 H         -17.685072      -48.254963      -14.429839
 H         -16.110439      -49.972572      -15.111117
 H         -15.193373      -49.779808      -13.632945
