20
 generated by VMD
 C         -58.622551     -160.092484      -56.985847
 N         -58.487827     -159.927841      -58.180710
 H         -58.802639     -162.513260      -54.973473
 H         -58.672783     -160.214630      -55.886951
 C         -59.564960     -162.404358      -54.193237
 C         -59.036316     -162.537170      -52.823719
 C         -60.939617     -162.656982      -54.619919
 C         -60.272789     -162.101151      -51.854919
 C         -61.887627     -161.933197      -53.658127
 C         -61.728443     -162.490616      -52.267437
 H         -58.114170     -161.933441      -52.595928
 H         -58.570805     -163.490158      -52.572086
 H         -61.148254     -162.343903      -55.595695
 H         -61.091797     -163.776093      -54.522434
 H         -60.263256     -161.038574      -51.756332
 H         -60.212944     -162.568512      -50.917419
 H         -62.921574     -162.022827      -54.034126
 H         -61.671852     -160.859711      -53.754967
 H         -62.458084     -162.034866      -51.643349
 H         -61.914955     -163.544800      -52.162121
