20
 generated by VMD
 C         -18.140221      -48.575695       -7.330124
 N         -18.716906      -49.193745       -6.586401
 H         -16.196686      -48.124527      -10.222057
 H         -16.094330      -49.023422      -11.593836
 C         -16.277079      -48.020283      -11.282462
 C         -15.167781      -47.081982      -11.862656
 C         -17.706398      -47.617275      -11.682335
 C         -15.322293      -47.226173      -13.323469
 C         -17.864294      -47.425457      -13.170424
 C         -16.674643      -46.713928      -13.840617
 H         -14.211289      -47.471027      -11.461903
 H         -15.342217      -46.021664      -11.611497
 H         -18.387747      -48.448406      -11.382300
 H         -18.016788      -46.655849      -11.165508
 H         -15.224476      -48.261200      -13.643560
 H         -14.539997      -46.616238      -13.774170
 H         -18.761786      -46.829082      -13.358708
 H         -18.141478      -48.364452      -13.756320
 H         -16.721556      -46.767742      -14.903684
 H         -16.728619      -45.679840      -13.665889
