20
 generated by VMD
 C         -61.398167     -155.808441      -54.859695
 N         -60.888760     -155.688828      -53.783348
 H         -58.946415     -155.257553      -51.792782
 H         -61.924660     -155.989243      -55.767338
 C         -57.914032     -155.244675      -51.472038
 C         -57.464115     -154.415131      -50.380352
 C         -56.978020     -155.715607      -52.497025
 C         -56.314930     -155.149628      -49.761555
 C         -55.673531     -156.304214      -51.910484
 C         -55.236797     -155.421463      -50.711651
 H         -58.207771     -154.274796      -49.533749
 H         -57.227844     -153.432724      -50.795502
 H         -57.332771     -156.567963      -53.150002
 H         -56.731136     -154.835220      -53.036671
 H         -56.497520     -156.039169      -49.161240
 H         -55.895824     -154.426590      -48.907803
 H         -54.836239     -156.635498      -52.664749
 H         -55.938908     -157.278748      -51.464165
 H         -54.477982     -156.043732      -50.076923
 H         -54.756126     -154.549835      -51.076561
