20
 generated by VMD
 C         -12.536724      -28.099726       -5.493296
 N         -13.163620      -28.322737       -6.395347
 H         -11.914362      -31.662582       -4.481987
 H         -11.223512      -30.159914       -5.094702
 C         -11.008284      -31.065695       -4.578593
 C          -9.924382      -31.902510       -5.292483
 C         -10.626715      -30.756430       -3.173264
 C          -8.517106      -31.310251       -5.201903
 C          -9.389880      -29.961815       -3.194701
 C          -8.184831      -30.653856       -3.821706
 H         -10.130232      -31.946611       -6.337831
 H         -10.065835      -32.988403       -4.874622
 H         -11.487350      -30.156132       -2.731041
 H         -10.530724      -31.651402       -2.524226
 H          -8.455713      -30.469599       -5.973437
 H          -7.764235      -32.038696       -5.567322
 H          -9.183112      -29.710197       -2.123322
 H          -9.482973      -29.032618       -3.742020
 H          -7.338938      -29.956982       -3.941962
 H          -7.783889      -31.341436       -3.130076
