20
 generated by VMD
 C         -33.552673      -96.505669      -25.318682
 N         -32.706703      -96.928772      -24.662764
 H         -34.665611      -93.426788      -27.417931
 H         -34.359848      -95.983498      -25.886835
 C         -34.789295      -93.374390      -28.516211
 C         -36.104038      -93.809006      -29.190336
 C         -33.453339      -93.206963      -29.268072
 C         -36.257172      -92.920883      -30.439541
 C         -33.730003      -92.478188      -30.524714
 C         -35.000317      -93.015564      -31.278404
 H         -36.883942      -93.523735      -28.494829
 H         -36.209610      -94.875771      -29.488092
 H         -32.758160      -92.603851      -28.703342
 H         -33.087715      -94.226456      -29.420723
 H         -36.420002      -91.855156      -30.294651
 H         -37.082386      -93.329056      -31.090141
 H         -32.949642      -92.353241      -31.237476
 H         -33.838196      -91.394630      -30.156240
 H         -35.337322      -92.231499      -32.052425
 H         -34.759350      -93.944427      -31.746489
