20
 generated by VMD
 C          -7.023823      -23.040596        2.453697
 N          -6.043459      -22.702646        2.861717
 H          -6.274222      -20.804672       -0.130092
 H          -7.716583      -21.567221       -0.535043
 C          -6.879433      -21.026287       -1.019405
 C          -6.168706      -21.953104       -2.028686
 C          -7.226391      -19.598410       -1.656617
 C          -7.044272      -22.118525       -3.259783
 C          -8.152781      -19.820894       -2.922553
 C          -7.464519      -20.782967       -3.913116
 H          -6.050169      -22.970163       -1.620607
 H          -5.134721      -21.664925       -2.209704
 H          -7.779469      -19.122234       -0.835905
 H          -6.314029      -19.141754       -1.952961
 H          -7.926966      -22.657772       -2.948470
 H          -6.476733      -22.653141       -4.022634
 H          -8.309750      -18.829058       -3.376332
 H          -9.091506      -20.306900       -2.617437
 H          -8.171270      -20.995224       -4.713442
 H          -6.563951      -20.396664       -4.366084
