20
 generated by VMD
 C         -28.112707      -82.387871      -26.842251
 N         -27.327612      -83.205765      -26.957293
 H         -31.237507      -84.275345      -26.587902
 H         -28.938658      -81.608673      -26.862486
 C         -31.658129      -84.821793      -25.791218
 C         -31.242632      -84.610573      -24.470133
 C         -32.155907      -86.124680      -26.191589
 C         -32.099422      -85.350365      -23.328081
 C         -33.144608      -86.760071      -25.201052
 C         -32.632660      -86.794815      -23.757996
 H         -31.177593      -83.581322      -24.140011
 H         -30.231827      -84.913162      -24.447008
 H         -32.620876      -86.101624      -27.157875
 H         -31.175489      -86.700218      -26.207659
 H         -32.959431      -84.573166      -23.133101
 H         -31.582178      -85.379570      -22.389900
 H         -33.240490      -87.767708      -25.509388
 H         -34.140007      -86.245102      -25.329874
 H         -33.424431      -87.194138      -23.026585
 H         -31.651884      -87.378540      -23.683754
