20
 generated by VMD
 C         -70.382744     -198.677750      -64.266098
 N         -70.030815     -198.315109      -65.305145
 H         -72.835854     -196.631195      -66.366989
 H         -70.494675     -198.926147      -63.243431
 C         -73.271805     -195.894608      -67.038788
 C         -73.332207     -194.445099      -66.513580
 C         -74.292099     -196.205719      -68.096947
 C         -73.208916     -193.478592      -67.693535
 C         -74.836914     -195.008759      -68.835083
 C         -73.767792     -194.007797      -68.989555
 H         -72.436050     -194.196121      -65.880280
 H         -74.280594     -194.269943      -66.048660
 H         -73.742332     -196.805084      -68.876938
 H         -75.087006     -196.706848      -67.526840
 H         -72.221619     -193.012421      -67.828857
 H         -73.819794     -192.575867      -67.463966
 H         -75.568588     -194.641296      -68.104950
 H         -75.378166     -195.346893      -69.765282
 H         -72.949081     -194.381378      -69.686249
 H         -74.368752     -193.246277      -69.552811
