20
 generated by VMD
 C         -38.294914      -98.618332      -27.822607
 N         -38.307995      -99.610191      -27.253933
 H         -37.452168      -97.246445      -30.867542
 H         -38.158871      -97.579216      -28.269016
 C         -36.363163      -97.573318      -30.752628
 C         -35.561268      -98.059433      -31.907440
 C         -35.593834      -97.211945      -29.429943
 C         -34.505478      -97.064766      -32.219143
 C         -34.559731      -96.126434      -29.978199
 C         -33.688801      -96.829720      -30.905149
 H         -36.196091      -98.203125      -32.748348
 H         -35.262733      -99.061836      -31.527765
 H         -36.249802      -96.636436      -28.836285
 H         -35.205265      -98.082550      -28.894718
 H         -34.816750      -96.136803      -32.746693
 H         -33.735600      -97.543243      -32.992188
 H         -33.907269      -95.764717      -29.169512
 H         -35.069244      -95.340996      -30.443161
 H         -32.783184      -96.252258      -31.037212
 H         -33.338234      -97.825172      -30.623983
