20
 generated by VMD
 C         -50.204033     -131.721863      -46.767189
 N         -50.087044     -132.040344      -47.931541
 H         -48.661690     -131.428162      -43.791702
 H         -50.015930     -131.663589      -45.687763
 C         -48.850731     -132.294418      -43.113243
 C         -49.576080     -133.472549      -43.463417
 C         -48.697651     -131.909271      -41.637474
 C         -49.151608     -134.682663      -42.679962
 C         -48.179989     -133.155090      -40.854050
 C         -48.898460     -134.438828      -41.152851
 H         -49.410797     -133.742188      -44.587830
 H         -50.600918     -133.330154      -43.321331
 H         -47.957203     -131.084549      -41.433231
 H         -49.535194     -131.439667      -41.186005
 H         -48.175541     -135.113266      -42.943325
 H         -49.855236     -135.523651      -42.801723
 H         -48.075039     -132.991928      -39.781937
 H         -47.104168     -133.075150      -41.057846
 H         -48.357182     -135.252930      -40.719559
 H         -49.992397     -134.335114      -40.799732
