20
 generated by VMD
 C         -20.094275      -52.093712       -9.941894
 N         -21.022240      -51.380310      -10.006436
 H         -18.109531      -48.971092      -10.460556
 H         -19.228628      -52.957283      -10.100262
 C         -17.413933      -49.111309      -11.315943
 C         -16.927982      -50.470764      -11.767869
 C         -17.122234      -47.985687      -12.208301
 C         -16.666256      -50.798244      -13.255359
 C         -17.272043      -48.443985      -13.701427
 C         -16.248360      -49.538261      -14.047428
 H         -17.535330      -51.252041      -11.372899
 H         -15.964274      -50.582615      -11.239005
 H         -17.706299      -47.044674      -11.992685
 H         -16.057247      -47.734852      -12.114319
 H         -17.476109      -51.351410      -13.690844
 H         -15.816174      -51.499504      -13.305138
 H         -17.128723      -47.498489      -14.299808
 H         -18.276617      -48.721058      -14.023501
 H         -16.345827      -49.734718      -15.109410
 H         -15.240486      -49.226440      -13.859153
