20
 generated by VMD
 C         -38.233990     -110.326607      -36.173138
 N         -37.693241     -109.268372      -36.259750
 H         -40.354351     -113.645988      -35.625927
 H         -38.752838     -111.204666      -35.912277
 C         -41.228130     -113.160583      -35.916069
 C         -42.268044     -113.859367      -36.677017
 C         -41.472023     -111.963554      -35.101616
 C         -43.413670     -114.208961      -35.749649
 C         -42.575981     -112.434097      -34.089809
 C         -43.817101     -112.916092      -34.928524
 H         -41.855656     -114.741638      -37.225208
 H         -42.577866     -113.140274      -37.428661
 H         -40.662579     -111.597450      -34.478840
 H         -41.984631     -111.055099      -35.548515
 H         -43.130932     -114.905113      -34.972195
 H         -44.271751     -114.689842      -36.275311
 H         -42.767712     -111.523270      -33.387688
 H         -42.100559     -113.281548      -33.506855
 H         -44.613689     -113.219185      -34.146263
 H         -44.191616     -112.213165      -35.615917
