20
 generated by VMD
 C         -48.682522     -140.813980      -45.371269
 N         -47.564823     -140.783157      -45.369473
 H         -50.966400     -138.977890      -46.109966
 H         -49.712238     -140.653717      -45.372032
 C         -52.019062     -139.263138      -46.164021
 C         -52.600407     -139.314499      -47.504486
 C         -53.025242     -139.653564      -45.011215
 C         -53.364388     -140.628693      -47.832569
 C         -53.760769     -140.991333      -45.373703
 C         -54.386978     -140.955261      -46.686821
 H         -51.731365     -139.208878      -48.231998
 H         -53.226006     -138.496323      -47.844467
 H         -52.407803     -139.746185      -44.166794
 H         -53.753941     -138.939056      -44.888531
 H         -52.820026     -141.552124      -47.874912
 H         -53.791149     -140.444809      -48.780888
 H         -54.569950     -141.155136      -44.713947
 H         -53.001411     -141.794769      -45.248184
 H         -54.899380     -141.915909      -46.969673
 H         -55.248127     -140.100800      -46.637199
