20
 generated by VMD
 C         -61.587162     -155.855118      -53.781960
 N         -61.557014     -154.990494      -54.528072
 H         -58.677700     -155.306839      -51.865814
 H         -61.604904     -156.601822      -52.995491
 C         -57.639782     -155.128784      -51.572739
 C         -57.380199     -154.426758      -50.285957
 C         -56.507607     -155.270111      -52.565155
 C         -56.105171     -154.901443      -49.518230
 C         -55.216652     -155.731277      -51.785236
 C         -54.928112     -154.905121      -50.420143
 H         -58.288307     -154.327316      -49.623863
 H         -57.173012     -153.384506      -50.634335
 H         -56.912209     -155.977844      -53.369678
 H         -56.213047     -154.333221      -53.072334
 H         -56.255535     -155.924500      -49.174015
 H         -55.993984     -154.423401      -48.511387
 H         -54.328285     -155.803833      -52.516758
 H         -55.316807     -156.768860      -51.531380
 H         -54.172668     -155.375259      -49.772305
 H         -54.612309     -153.870651      -50.662346
