20
 generated by VMD
 C         -60.255959     -156.344437      -56.039082
 N         -60.797935     -155.294052      -55.787731
 H         -59.789356     -157.825851      -53.155724
 H         -59.727268     -157.332428      -56.089382
 C         -58.888504     -157.881866      -52.490067
 C         -58.020344     -156.656174      -52.383026
 C         -58.254387     -159.201965      -51.910004
 C         -57.237213     -156.434174      -51.134460
 C         -57.441898     -158.916138      -50.595367
 C         -56.502693     -157.672592      -50.694523
 H         -58.764347     -155.913391      -52.578918
 H         -57.246845     -156.847824      -53.170746
 H         -59.031166     -159.883377      -51.830456
 H         -57.486298     -159.566757      -52.582275
 H         -57.889797     -156.062363      -50.228889
 H         -56.560398     -155.594238      -51.248596
 H         -56.943390     -159.744720      -50.208511
 H         -58.223103     -158.848984      -49.844337
 H         -55.806297     -157.417297      -49.782539
 H         -55.705517     -157.834763      -51.370815
