20
 generated by VMD
 C         -80.091324     -205.476791      -71.853821
 N         -79.759010     -206.561539      -71.742073
 H         -77.233055     -203.592468      -70.678543
 H         -80.476654     -204.498657      -71.880928
 C         -76.376381     -204.195877      -70.899483
 C         -75.057625     -203.577164      -71.259354
 C         -76.276207     -205.673676      -70.560387
 C         -74.275429     -203.440155      -69.877129
 C         -75.410721     -205.887268      -69.356491
 C         -74.216103     -204.863068      -69.349030
 H         -75.284958     -202.673416      -71.833313
 H         -74.602333     -204.283905      -71.971252
 H         -77.292351     -205.923431      -70.213196
 H         -76.204002     -206.188843      -71.490311
 H         -74.933990     -202.852219      -69.258659
 H         -73.350372     -202.990585      -69.994286
 H         -74.948105     -206.955261      -69.344849
 H         -76.037018     -205.776566      -68.422638
 H         -74.004974     -204.851868      -68.295212
 H         -73.319740     -205.385635      -69.791267
