20
 generated by VMD
 C          -9.158638      -23.912506        2.281513
 N          -8.815064      -24.938688        2.505018
 H          -7.842093      -23.354916       -0.946262
 H          -8.982678      -22.683725       -2.189203
 C          -7.972097      -22.974726       -1.959340
 C          -7.647629      -24.143839       -2.985967
 C          -7.078157      -21.818424       -2.138717
 C          -7.490579      -23.664051       -4.450407
 C          -6.943850      -21.380621       -3.584751
 C          -6.546412      -22.483488       -4.494561
 H          -8.343787      -24.973425       -2.794524
 H          -6.671178      -24.570957       -2.583714
 H          -7.464385      -21.018238       -1.537151
 H          -6.067107      -22.037338       -1.737453
 H          -8.448694      -23.404417       -4.919302
 H          -7.234927      -24.492998       -5.155846
 H          -6.265032      -20.556599       -3.657185
 H          -7.901620      -20.958683       -3.901344
 H          -6.512621      -22.084728       -5.509444
 H          -5.509187      -22.846779       -4.199244
