20
 generated by VMD
 C         -50.274555     -145.218933      -45.007175
 N         -49.868061     -144.690063      -44.106785
 H         -53.044460     -143.063873      -45.709686
 H         -50.478874     -145.662888      -45.938969
 C         -53.404194     -142.869659      -46.740822
 C         -52.519951     -142.852615      -48.100727
 C         -54.716656     -142.078476      -46.842594
 C         -53.362080     -143.070709      -49.357944
 C         -55.380562     -142.259888      -48.145237
 C         -54.534927     -142.088699      -49.365009
 H         -51.640755     -143.543121      -48.009487
 H         -52.014610     -141.845581      -48.140442
 H         -55.410759     -142.529678      -46.074001
 H         -54.290508     -140.987854      -46.619591
 H         -53.800316     -144.103119      -49.345490
 H         -52.733002     -142.943985      -50.283245
 H         -56.193676     -141.466812      -48.170349
 H         -56.037655     -143.219391      -48.071209
 H         -55.034969     -142.342453      -50.320976
 H         -54.263561     -141.002655      -49.549564
