20
 generated by VMD
 C         -38.712811     -113.612747      -35.825493
 N         -37.750481     -114.257492      -35.868984
 H         -41.258694     -114.782394      -35.577763
 H         -39.738823     -113.145096      -35.754517
 C         -42.219090     -114.585022      -36.079723
 C         -42.393967     -114.428688      -37.668209
 C         -43.437496     -114.229156      -35.253956
 C         -43.538517     -115.330933      -38.012939
 C         -44.644588     -115.065231      -35.699757
 C         -44.890949     -115.115730      -37.225063
 H         -41.373398     -114.706207      -38.029652
 H         -42.532463     -113.352013      -37.813610
 H         -43.427971     -114.559479      -34.165642
 H         -43.745655     -113.151276      -35.398472
 H         -43.325562     -116.407692      -37.955872
 H         -43.762539     -115.196976      -39.071884
 H         -45.478443     -114.572914      -35.130482
 H         -44.473961     -116.142792      -35.448544
 H         -45.532513     -115.914200      -37.629860
 H         -45.400528     -114.283630      -37.488976
