20
 generated by VMD
 C         -56.250721     -149.498505      -46.053799
 N         -56.298645     -150.477707      -45.483616
 H         -53.685436     -147.830750      -47.702271
 H         -56.319401     -148.503326      -46.504040
 C         -53.952847     -147.417068      -48.717751
 C         -53.057747     -147.679840      -49.868431
 C         -54.606091     -146.146393      -48.575241
 C         -53.510990     -147.100784      -51.152157
 C         -55.389309     -145.705551      -49.834347
 C         -54.364670     -145.801163      -51.075932
 H         -53.064285     -148.854263      -49.988308
 H         -52.041637     -147.518784      -49.637623
 H         -55.364521     -146.114700      -47.688663
 H         -53.778801     -145.441544      -48.390591
 H         -54.225498     -147.844711      -51.587132
 H         -52.661888     -146.995178      -51.882610
 H         -55.757137     -144.759003      -49.702709
 H         -56.218403     -146.468353      -50.065277
 H         -54.957642     -145.626144      -51.985634
 H         -53.674755     -144.964462      -51.027676
