20
 generated by VMD
 C         -29.272299      -80.199493      -26.755703
 N         -29.924431      -80.184563      -27.708052
 H         -28.662165      -82.343025      -24.726995
 H         -28.628681      -80.244019      -25.971930
 C         -29.248247      -83.006470      -24.186012
 C         -29.340549      -82.905342      -22.658642
 C         -30.000698      -84.134659      -24.829468
 C         -30.829473      -83.059433      -22.257650
 C         -31.454510      -84.089760      -24.397591
 C         -31.470778      -84.159416      -22.908442
 H         -28.991385      -81.941971      -22.187307
 H         -28.943693      -83.830742      -22.215544
 H         -29.734442      -84.040245      -25.930344
 H         -29.590895      -85.071854      -24.467163
 H         -31.280245      -82.141663      -22.547777
 H         -31.004890      -83.383904      -21.158428
 H         -31.910673      -84.973900      -24.971861
 H         -31.886866      -83.182945      -24.815289
 H         -32.594349      -84.153137      -22.712200
 H         -31.119070      -85.178162      -22.541620
