20
 generated by VMD
 C         -29.561775      -89.601357      -25.063913
 N         -29.183048      -89.153656      -26.068647
 H         -32.080170      -90.626862      -26.693943
 H         -29.785070      -89.866920      -23.991112
 C         -32.882412      -90.501534      -27.409092
 C         -34.142277      -91.002640      -27.035196
 C         -32.848568      -89.557114      -28.520514
 C         -34.869579      -89.764053      -26.401075
 C         -33.557053      -88.299828      -28.117769
 C         -34.898083      -88.532318      -27.367868
 H         -34.032871      -91.833992      -26.288902
 H         -34.754616      -91.500175      -27.905748
 H         -31.833532      -89.284081      -28.926485
 H         -33.386105      -90.050896      -29.355457
 H         -34.373070      -89.320786      -25.439077
 H         -35.925869      -90.050011      -26.184820
 H         -33.782921      -87.609886      -28.979424
 H         -32.738468      -87.775665      -27.534479
 H         -35.317013      -87.607697      -27.022917
 H         -35.559292      -88.677010      -28.092691
