20
 generated by VMD
 C         -30.294258      -75.169388      -21.006016
 N         -31.458805      -75.330009      -20.876162
 H         -27.740976      -74.831520      -19.606173
 H         -29.385326      -75.106277      -21.449986
 C         -27.047709      -74.682877      -20.461992
 C         -26.652430      -75.812897      -21.352022
 C         -26.049236      -73.592346      -20.411751
 C         -26.025726      -75.509193      -22.663343
 C         -25.314810      -73.223709      -21.771574
 C         -24.856598      -74.482101      -22.616760
 H         -27.355555      -76.689003      -21.372690
 H         -25.920527      -76.421455      -20.884811
 H         -26.603613      -72.725952      -19.967634
 H         -25.142139      -73.896667      -19.758301
 H         -26.849588      -75.103424      -23.226482
 H         -25.733839      -76.423035      -23.171303
 H         -24.537407      -72.503326      -21.582901
 H         -26.112213      -72.668571      -22.349968
 H         -24.721321      -74.133232      -23.667143
 H         -23.976521      -75.009026      -22.151941
