20
 generated by VMD
 C         -40.754921     -100.161736      -29.965763
 N         -40.617065     -100.294373      -28.832275
 H         -37.345226      -99.543556      -30.483707
 H         -40.790241      -99.808182      -30.948217
 C         -36.392128      -99.655937      -30.878687
 C         -36.007248      -99.677933      -32.264908
 C         -35.339897      -99.715050      -29.713671
 C         -34.967171      -98.510651      -32.503323
 C         -34.346245      -98.460983      -29.923769
 C         -33.744106      -98.476540      -31.502872
 H         -36.916534      -99.360748      -32.832718
 H         -35.660679     -100.658974      -32.567387
 H         -35.905476      -99.487030      -28.786886
 H         -34.824913     -100.643372      -29.613850
 H         -35.611115      -97.612892      -32.373764
 H         -34.622940      -98.543060      -33.588730
 H         -33.494602      -98.592560      -29.225021
 H         -34.889313      -97.589447      -29.739422
 H         -33.046124      -97.690376      -31.577114
 H         -33.180096      -99.477684      -31.644445
