20
 generated by VMD
 C         -68.360588     -185.350876      -67.506035
 N         -67.628899     -185.287537      -66.612030
 H         -69.187714     -186.920212      -64.812424
 H         -68.968658     -185.466888      -68.338516
 C         -69.650894     -186.831635      -63.813412
 C         -70.304428     -185.518173      -63.350544
 C         -69.616112     -188.052719      -62.928326
 C         -70.043159     -185.223175      -61.876450
 C         -69.208527     -187.670059      -61.561607
 C         -69.974564     -186.542053      -61.040878
 H         -71.375931     -185.755615      -63.369724
 H         -70.096626     -184.616898      -63.874893
 H         -70.622704     -188.512589      -63.008080
 H         -68.816986     -188.638367      -63.394112
 H         -70.751251     -184.510925      -61.400127
 H         -69.072975     -184.810349      -61.884167
 H         -68.063026     -187.436218      -61.714020
 H         -69.140099     -188.512100      -60.811481
 H         -71.018646     -186.619797      -60.802311
 H         -69.584236     -186.333801      -60.042149
