20
 generated by VMD
 C         -50.405033     -145.096313      -45.201218
 N         -50.294304     -145.265060      -44.035774
 H         -52.870323     -143.212494      -46.011520
 H         -50.744030     -144.954849      -46.218399
 C         -53.456665     -143.066788      -46.912182
 C         -52.583527     -143.252899      -48.047848
 C         -54.721413     -142.290253      -46.976032
 C         -53.312885     -143.249588      -49.429871
 C         -55.481430     -142.493927      -48.281013
 C         -54.471127     -142.200119      -49.426266
 H         -51.933266     -144.112350      -48.044205
 H         -51.820305     -142.377472      -47.989655
 H         -55.460003     -142.614929      -46.176956
 H         -54.413994     -141.211853      -47.018158
 H         -53.904556     -144.249786      -49.528416
 H         -52.643406     -143.184509      -50.311111
 H         -56.310436     -141.828964      -48.462086
 H         -55.981113     -143.467468      -48.304054
 H         -55.031731     -142.339310      -50.437424
 H         -54.263371     -141.091812      -49.396675
