20
 generated by VMD
 C         -38.689983     -113.503250      -35.966766
 N         -37.616333     -113.993088      -35.952301
 H         -41.700272     -115.446777      -35.696877
 H         -39.712753     -113.172104      -36.024467
 C         -42.256908     -114.559578      -35.989223
 C         -42.366135     -114.362801      -37.469433
 C         -43.426517     -114.263763      -35.070786
 C         -43.444988     -115.335960      -37.936741
 C         -44.719650     -114.917564      -35.698601
 C         -44.774990     -114.926514      -37.229698
 H         -41.421669     -114.530937      -38.065651
 H         -42.686672     -113.300583      -37.567265
 H         -43.126045     -114.572006      -34.020699
 H         -43.646957     -113.175995      -35.194481
 H         -43.247562     -116.383560      -37.689377
 H         -43.639477     -115.387077      -39.000561
 H         -45.617470     -114.378761      -35.513184
 H         -44.553146     -115.891304      -35.317726
 H         -45.605362     -115.597244      -37.549313
 H         -45.076641     -114.024895      -37.717899
