20
 generated by VMD
 C         -10.846234      -36.556931       -7.898825
 N          -9.851905      -36.948921       -7.493641
 H         -13.010601      -38.836040       -8.173674
 H         -14.283608      -38.940487       -6.871958
 C         -13.963747      -39.320232       -7.840339
 C         -13.708670      -40.803421       -7.643125
 C         -15.008373      -39.130383       -8.931460
 C         -14.898957      -41.659077       -7.613523
 C         -16.262877      -39.817154       -8.652969
 C         -15.897703      -41.307163       -8.708727
 H         -13.042471      -40.870354       -6.819820
 H         -13.095583      -41.142830       -8.454695
 H         -15.217919      -38.089165       -9.009602
 H         -14.622743      -39.419914       -9.921424
 H         -15.382686      -41.518166       -6.666069
 H         -14.621798      -42.740524       -7.691298
 H         -17.029484      -39.635849       -9.334185
 H         -16.716469      -39.607937       -7.635898
 H         -16.804325      -41.863800       -8.657683
 H         -15.482265      -41.536156       -9.674182
