20
 generated by VMD
 C         -69.760323     -196.460861      -65.296616
 N         -68.599327     -196.617188      -65.406433
 H         -72.283310     -194.047119      -65.090912
 H         -70.808968     -196.350784      -65.206314
 C         -72.249664     -193.861725      -66.138428
 C         -72.308792     -192.435745      -66.548424
 C         -72.935616     -194.876144      -66.981567
 C         -73.730759     -192.043060      -66.654800
 C         -74.317490     -194.393478      -67.321510
 C         -74.445015     -192.893219      -67.705986
 H         -71.625237     -192.290848      -67.434540
 H         -71.707939     -191.743057      -65.987755
 H         -72.383453     -195.038315      -67.863464
 H         -72.922737     -195.872162      -66.621208
 H         -73.710541     -190.940582      -66.873131
 H         -74.369995     -192.132507      -65.746422
 H         -74.947639     -194.565567      -66.446106
 H         -74.760315     -194.978226      -68.153183
 H         -73.957680     -192.723206      -68.778625
 H         -75.528702     -192.696594      -67.901726
