20
 generated by VMD
 C         -73.888237     -201.445648      -65.298729
 N         -72.816910     -201.091034      -65.585495
 H         -75.213737     -198.142883      -66.899826
 H         -74.793343     -201.952789      -65.225761
 C         -74.659386     -197.585968      -67.623260
 C         -74.672913     -196.076767      -67.808182
 C         -73.945839     -198.356598      -68.784248
 C         -73.512222     -195.492844      -68.553024
 C         -73.660606     -197.460602      -69.986679
 C         -72.919144     -196.260605      -69.722809
 H         -74.750420     -195.785919      -66.701622
 H         -75.526398     -195.847855      -68.351540
 H         -72.934113     -198.671249      -68.422844
 H         -74.514732     -199.271088      -69.105438
 H         -72.713791     -195.209076      -67.820702
 H         -73.933708     -194.545395      -68.827621
 H         -74.569344     -197.107712      -70.497124
 H         -73.147095     -197.996750      -70.743111
 H         -71.945045     -196.578232      -69.385841
 H         -72.600182     -195.664841      -70.613754
