20
 generated by VMD
 C         -20.431055      -61.786144      -17.539766
 N         -19.550091      -61.374794      -16.875553
 H         -21.772165      -65.270958      -16.786615
 H         -21.372713      -62.162037      -17.975058
 C         -22.803299      -65.021896      -16.968832
 C         -23.041311      -64.278564      -18.304808
 C         -23.954996      -65.284271      -16.028065
 C         -24.390629      -64.717308      -18.911692
 C         -25.292953      -65.613396      -16.692381
 C         -25.558012      -64.666611      -17.825150
 H         -22.127722      -64.401108      -18.953308
 H         -23.047855      -63.152084      -18.084290
 H         -23.686909      -66.258705      -15.525792
 H         -24.028435      -64.481026      -15.237319
 H         -24.214834      -65.686913      -19.347305
 H         -24.656641      -63.884216      -19.610760
 H         -26.018372      -65.455528      -15.943997
 H         -25.338963      -66.630066      -17.025047
 H         -26.498144      -64.875092      -18.322416
 H         -25.474674      -63.685688      -17.361738
