20
 generated by VMD
 C         -58.024284     -165.611313      -56.316830
 N         -57.236771     -165.102539      -57.045746
 H         -60.284527     -164.708221      -54.173317
 H         -58.743301     -166.108185      -55.653477
 C         -61.346252     -164.802139      -54.604939
 C         -61.858128     -166.259094      -54.506844
 C         -61.803619     -163.917511      -55.673988
 C         -63.364292     -166.344177      -54.823833
 C         -63.315567     -164.084946      -55.809841
 C         -63.822517     -165.526047      -55.936501
 H         -61.564312     -166.703674      -53.449593
 H         -61.226059     -166.955399      -55.086773
 H         -61.609352     -162.880402      -55.372818
 H         -61.246925     -164.096573      -56.659969
 H         -63.925453     -166.020187      -53.843494
 H         -63.550930     -167.450592      -54.993690
 H         -63.784531     -163.581253      -56.619408
 H         -63.882473     -163.619583      -54.998791
 H         -64.893562     -165.509109      -55.868671
 H         -63.510746     -165.876694      -56.868618
