20
 generated by VMD
 C          -5.915627      -22.060514        1.953334
 N          -6.573063      -22.836557        2.407385
 H          -5.385729      -19.265656       -0.753041
 H          -6.468265      -20.358559       -0.138020
 C          -6.186334      -19.903042       -1.116439
 C          -5.639525      -21.007711       -1.984780
 C          -7.163335      -19.047623       -1.858893
 C          -6.826253      -21.869366       -2.349166
 C          -8.349757      -19.824787       -2.295425
 C          -7.922273      -21.060362       -3.069753
 H          -4.952235      -21.534477       -1.322910
 H          -5.202815      -20.612858       -2.905822
 H          -7.499833      -18.244730       -1.268696
 H          -6.667869      -18.519123       -2.648154
 H          -7.242492      -22.290834       -1.439961
 H          -6.503509      -22.764778       -2.863440
 H          -9.156992      -19.286991       -2.821723
 H          -8.886089      -20.131199       -1.383856
 H          -8.772161      -21.644873       -3.340881
 H          -7.470698      -20.655193       -3.953316
