20
 generated by VMD
 C         -31.924614      -76.135689      -24.307375
 N         -31.370094      -76.537155      -25.287724
 H         -29.562944      -77.418945      -22.609568
 H         -32.047428      -75.709854      -23.382669
 C         -28.628757      -77.920967      -22.238338
 C         -27.564644      -78.187630      -23.221510
 C         -28.359131      -78.370041      -20.773579
 C         -26.145159      -77.864319      -22.767384
 C         -26.877861      -78.178856      -20.433899
 C         -25.955103      -78.712257      -21.513002
 H         -27.836632      -77.768097      -24.187967
 H         -27.632055      -79.197433      -23.640348
 H         -29.144148      -78.102310      -20.117950
 H         -28.424978      -79.520790      -20.743689
 H         -25.985722      -76.789719      -22.483313
 H         -25.492865      -78.152771      -23.572958
 H         -26.674812      -78.621124      -19.482182
 H         -26.626032      -77.217903      -20.351496
 H         -24.942528      -78.504456      -21.262861
 H         -26.220997      -79.763390      -21.776030
