20
 generated by VMD
 C         -74.904472     -201.814224      -66.539268
 N         -74.644646     -201.353851      -65.533386
 H         -76.323280     -199.072952      -68.970299
 H         -75.412766     -202.266403      -67.401672
 C         -75.307220     -198.788559      -69.012772
 C         -75.012405     -197.502518      -68.322784
 C         -74.280922     -199.399216      -69.811058
 C         -73.507729     -197.393448      -68.027351
 C         -73.279404     -198.356094      -70.368149
 C         -72.552017     -197.836411      -69.129921
 H         -75.572723     -197.528702      -67.337135
 H         -75.304611     -196.690689      -68.854996
 H         -73.771408     -200.162140      -69.184837
 H         -74.750549     -199.922318      -70.599678
 H         -73.211494     -198.000046      -67.175949
 H         -73.105804     -196.414337      -67.736267
 H         -73.742828     -197.547760      -70.905769
 H         -72.513939     -198.937103      -70.951126
 H         -71.902054     -198.612320      -68.728043
 H         -71.866989     -197.123123      -69.640480
