20
 generated by VMD
 C          -6.791497      -23.307400        3.257660
 N          -6.730749      -22.695511        2.322372
 H          -7.653845      -22.476345       -0.481495
 H          -8.991473      -22.350445       -1.691696
 C          -7.878766      -22.111538       -1.465925
 C          -6.955532      -22.915791       -2.505929
 C          -7.556229      -20.585917       -1.518255
 C          -7.058904      -22.201921       -3.927303
 C          -7.598185      -19.972607       -2.913053
 C          -6.663204      -20.699867       -3.864766
 H          -7.345064      -23.957987       -2.708665
 H          -5.961439      -22.942312       -2.185200
 H          -8.215238      -20.108421       -0.815655
 H          -6.589714      -20.369106       -1.066662
 H          -8.087154      -22.444561       -4.327282
 H          -6.417282      -22.714884       -4.681870
 H          -7.347842      -18.926514       -2.754069
 H          -8.614793      -19.919497       -3.344641
 H          -6.783862      -20.178965       -4.866836
 H          -5.560214      -20.671917       -3.622574
