20
 generated by VMD
 C         -12.774429      -28.487129       -5.842940
 N         -13.068722      -28.658749       -6.902812
 H         -12.064720      -31.134903       -4.923225
 H         -11.034993      -29.829565       -5.016994
 C         -11.060762      -30.873259       -4.719255
 C         -10.120951      -31.786428       -5.529244
 C         -10.781461      -31.140043       -3.274837
 C          -8.628338      -31.448360       -5.209052
 C          -9.434981      -30.610670       -2.945013
 C          -8.431985      -31.493483       -3.674480
 H         -10.339963      -31.628860       -6.648899
 H         -10.163756      -32.890545       -5.342727
 H         -11.509809      -30.526821       -2.718826
 H         -10.988515      -32.211922       -2.971850
 H          -8.330691      -30.417990       -5.554435
 H          -7.940761      -32.197933       -5.711946
 H          -9.189280      -30.625280       -1.834315
 H          -9.357699      -29.590853       -3.242399
 H          -7.447471      -31.159515       -3.447993
 H          -8.405444      -32.524521       -3.361866
