20
 generated by VMD
 C         -25.801620      -71.219872      -17.076967
 N         -25.777750      -71.832359      -16.071218
 H         -23.764103      -68.923035      -18.907377
 H         -25.991375      -70.624908      -17.903923
 C         -24.573359      -69.301308      -19.537102
 C         -23.970856      -70.126236      -20.490274
 C         -25.744473      -68.539726      -20.126844
 C         -24.972601      -70.944473      -21.230005
 C         -26.778572      -69.446640      -20.828585
 C         -26.100039      -70.220894      -21.917641
 H         -23.219412      -70.762405      -20.061115
 H         -23.349440      -69.672379      -21.232147
 H         -26.238905      -68.044968      -19.281765
 H         -25.376333      -67.848885      -20.837709
 H         -25.261219      -71.734352      -20.539965
 H         -24.333464      -71.460243      -21.993382
 H         -27.541470      -68.946365      -21.450747
 H         -27.219694      -70.146973      -20.037910
 H         -26.710840      -71.060661      -22.245136
 H         -25.915174      -69.564789      -22.790575
