20
 generated by VMD
 C         -68.336990     -193.603592      -65.006409
 N         -68.366661     -194.682129      -65.389481
 H         -70.634232     -192.945724      -66.990700
 H         -68.495934     -192.574341      -64.562904
 C         -71.661598     -192.623489      -66.885078
 C         -71.802162     -191.218094      -66.386978
 C         -72.893654     -193.427582      -67.042526
 C         -73.234535     -190.854355      -66.123039
 C         -73.581123     -193.328293      -65.613464
 C         -74.012703     -191.929581      -65.309921
 H         -71.310181     -190.455322      -67.084976
 H         -71.191185     -191.168945      -65.523834
 H         -73.533623     -193.248962      -67.937668
 H         -72.541077     -194.423187      -67.163948
 H         -73.749123     -190.654648      -67.093010
 H         -73.162422     -189.972198      -65.440956
 H         -72.978279     -193.585388      -64.743729
 H         -74.502419     -194.001724      -65.648026
 H         -75.212112     -191.851212      -65.390907
 H         -73.791977     -191.663467      -64.332123
