20
 generated by VMD
 C         -50.076767     -130.602066      -45.926773
 N         -50.910198     -129.965790      -45.341129
 H         -47.591270     -132.261383      -44.475544
 H         -49.098423     -130.920654      -46.218296
 C         -48.054653     -132.139145      -43.467892
 C         -48.455044     -133.374344      -42.773674
 C         -48.370975     -130.898804      -42.805470
 C         -47.965195     -133.394073      -41.329273
 C         -47.752869     -130.786758      -41.397858
 C         -48.122540     -132.096100      -40.533875
 H         -48.111023     -134.165588      -43.375401
 H         -49.555912     -133.538193      -42.734550
 H         -48.058140     -130.107773      -43.425007
 H         -49.414371     -130.933716      -42.570251
 H         -46.937580     -133.672165      -41.509708
 H         -48.516174     -134.254028      -40.930500
 H         -48.132816     -129.993744      -40.798382
 H         -46.695339     -130.862930      -41.456558
 H         -47.730469     -132.136566      -39.499355
 H         -49.213707     -132.081635      -40.269844
