20
 generated by VMD
 C         -21.343761      -65.380852      -17.155989
 N         -20.692804      -65.747513      -16.285435
 H         -24.591808      -63.520023      -17.979151
 H         -21.845581      -64.918198      -17.967421
 C         -24.743584      -64.630264      -18.258677
 C         -24.465296      -65.115852      -19.653294
 C         -25.022383      -65.522179      -17.089052
 C         -24.301117      -66.616951      -19.876995
 C         -24.881330      -66.960854      -17.338020
 C         -25.211115      -67.348824      -18.922810
 H         -23.610134      -64.588272      -19.960703
 H         -25.233337      -64.819931      -20.371117
 H         -24.294729      -65.326500      -16.217371
 H         -26.087234      -65.336342      -16.757420
 H         -23.206932      -66.874397      -19.728559
 H         -24.454632      -66.773964      -20.964785
 H         -25.621363      -67.558807      -16.759047
 H         -23.891623      -67.234863      -16.979006
 H         -24.954979      -68.403015      -18.939062
 H         -26.265345      -67.325188      -19.176661
