20
 generated by VMD
 C         -47.603840     -136.647461      -45.915775
 N         -46.967712     -136.114349      -46.699558
 H         -50.994209     -135.573196      -45.808735
 H         -48.333809     -137.124588      -45.320427
 C         -51.422707     -136.426804      -45.287323
 C         -52.038754     -137.475098      -46.135418
 C         -51.925045     -136.339798      -43.843937
 C         -51.992832     -138.880035      -45.418076
 C         -51.866047     -137.690582      -43.166336
 C         -52.598171     -138.814377      -44.007511
 H         -51.495354     -137.581924      -47.058773
 H         -53.125755     -137.137741      -46.312195
 H         -51.394531     -135.586014      -43.190144
 H         -53.008015     -136.202362      -43.855713
 H         -51.021812     -139.356522      -45.552364
 H         -52.664375     -139.523575      -46.116463
 H         -52.187309     -137.673965      -42.135918
 H         -50.702961     -137.803879      -43.130905
 H         -52.416954     -139.867447      -43.539734
 H         -53.665142     -138.495300      -44.213669
