20
 generated by VMD
 C         -79.500198     -205.431824      -70.909897
 N         -80.607231     -205.638611      -71.129280
 H         -77.008278     -203.196854      -69.715973
 H         -78.491196     -205.174194      -70.973312
 C         -75.950188     -203.147995      -69.756012
 C         -75.367409     -201.892090      -70.345421
 C         -75.394432     -204.456558      -69.480583
 C         -73.867928     -202.068008      -70.411354
 C         -73.987740     -204.139587      -68.964775
 C         -73.266098     -203.350174      -70.125397
 H         -75.521049     -201.076859      -69.658783
 H         -75.866112     -201.685547      -71.327896
 H         -75.942993     -205.137329      -68.767662
 H         -75.367767     -204.888245      -70.484962
 H         -73.419998     -201.249802      -69.842575
 H         -73.545082     -201.716171      -71.426758
 H         -73.541939     -205.063858      -68.660126
 H         -74.061409     -203.500290      -68.028404
 H         -72.155289     -203.227585      -69.689919
 H         -73.261063     -203.982620      -71.050560
