20
 generated by VMD
 C         -50.155788     -131.106613      -46.498077
 N         -50.311825     -131.407684      -47.657234
 H         -48.273346     -131.984665      -44.132893
 H         -50.146416     -130.650589      -45.523682
 C         -48.934803     -132.221298      -43.300743
 C         -49.458977     -133.603958      -43.165977
 C         -48.686836     -131.560837      -41.935856
 C         -48.655895     -134.524323      -42.108448
 C         -47.845547     -132.460144      -40.995327
 C         -48.534462     -133.845505      -40.815876
 H         -49.207909     -134.086578      -44.214188
 H         -50.504044     -133.603104      -42.977360
 H         -48.192287     -130.495422      -42.042133
 H         -49.560169     -131.359619      -41.255264
 H         -47.721043     -134.770096      -42.615086
 H         -49.229713     -135.475784      -42.032692
 H         -47.649403     -132.108765      -39.935635
 H         -46.737720     -132.648819      -41.343636
 H         -47.845291     -134.500000      -40.328072
 H         -49.603172     -133.710602      -40.366287
