20
 generated by VMD
 C         -31.701441      -75.867744      -24.006567
 N         -31.130781      -76.280289      -24.883961
 H         -29.681561      -78.298286      -22.480469
 H         -32.518017      -75.458328      -23.259970
 C         -28.659525      -78.129852      -22.145878
 C         -27.612461      -78.262138      -23.231062
 C         -28.214228      -78.179688      -20.646286
 C         -26.220373      -77.641113      -22.927753
 C         -26.755785      -77.614532      -20.446815
 C         -25.738972      -78.000397      -21.515045
 H         -27.960821      -77.908226      -24.166338
 H         -27.522127      -79.357719      -23.283440
 H         -28.882139      -77.588921      -19.957705
 H         -28.234024      -79.286369      -20.444336
 H         -26.470411      -76.577629      -22.863701
 H         -25.458363      -77.667282      -23.717262
 H         -26.218954      -77.909134      -19.433176
 H         -26.928885      -76.449463      -20.483219
 H         -24.799267      -77.575409      -21.310471
 H         -25.573051      -79.089401      -21.578407
