20
 generated by VMD
 C         -50.848629     -130.894745      -45.948723
 N         -50.476543     -129.983185      -46.520947
 H         -48.062222     -132.243973      -44.495319
 H         -50.925030     -131.627350      -45.163525
 C         -48.050682     -132.344360      -43.420254
 C         -48.497437     -133.676437      -42.927376
 C         -48.258904     -131.106644      -42.551712
 C         -48.192192     -133.910431      -41.455166
 C         -47.815411     -131.367233      -41.145958
 C         -48.532993     -132.634613      -40.616089
 H         -47.989346     -134.343887      -43.570042
 H         -49.619022     -133.761139      -43.080402
 H         -47.599632     -130.299301      -43.114845
 H         -49.306595     -130.850235      -42.488068
 H         -47.083313     -133.971710      -41.458752
 H         -48.656521     -134.854431      -41.133411
 H         -48.063259     -130.558472      -40.593857
 H         -46.724060     -131.446350      -41.236088
 H         -48.407948     -132.694229      -39.442261
 H         -49.583363     -132.515823      -40.700146
