20
 generated by VMD
 C         -59.762886     -157.457062      -56.571587
 N         -60.692696     -157.195724      -57.122871
 H         -59.789948     -157.329620      -53.199429
 H         -58.798168     -157.674637      -56.108418
 C         -59.146397     -157.934189      -52.564007
 C         -57.915604     -157.277374      -51.901165
 C         -59.428894     -159.380615      -52.733746
 C         -57.410629     -158.212891      -50.859692
 C         -58.897125     -160.136078      -51.483288
 C         -57.480240     -159.764786      -51.206955
 H         -58.193600     -156.197647      -51.429119
 H         -57.215733     -157.063934      -52.738647
 H         -60.415981     -159.720840      -52.667667
 H         -59.058777     -159.706116      -53.747913
 H         -58.078518     -157.996872      -49.993713
 H         -56.334461     -157.858063      -50.531773
 H         -58.823486     -161.261383      -51.732674
 H         -59.578102     -160.136353      -50.565029
 H         -57.050365     -160.271881      -50.395386
 H         -56.735878     -159.994034      -52.110958
