20
 generated by VMD
 C         -60.156456     -171.282318      -55.294285
 N         -59.370388     -172.141602      -54.996887
 H         -63.189133     -170.220459      -56.040321
 H         -60.859066     -170.531158      -55.614857
 C         -63.397511     -169.513428      -56.858543
 C         -62.518490     -168.507645      -57.479950
 C         -64.799194     -169.092712      -56.729271
 C         -63.036854     -167.918808      -58.759979
 C         -65.334183     -168.569855      -58.038311
 C         -64.513161     -167.356094      -58.642525
 H         -61.589359     -168.981903      -57.683441
 H         -62.238674     -167.704422      -56.697239
 H         -65.313095     -170.085129      -56.444973
 H         -64.756958     -168.598007      -55.758991
 H         -63.129234     -168.741226      -59.543396
 H         -62.307827     -167.136536      -59.087036
 H         -66.361923     -168.420944      -57.904934
 H         -65.393181     -169.356873      -58.769897
 H         -64.858536     -167.025650      -59.667950
 H         -64.530998     -166.454468      -58.071991
