20
 generated by VMD
 C         -79.196510     -209.358322      -76.256927
 N         -79.473701     -209.189987      -77.339775
 H         -78.235710     -208.927307      -72.561073
 H         -78.909111     -209.692291      -75.274109
 C         -77.926285     -209.954041      -72.367973
 C         -76.950928     -210.268921      -71.270729
 C         -78.979378     -210.936081      -72.641167
 C         -77.517380     -211.058243      -70.161003
 C         -79.639175     -211.507553      -71.458511
 C         -78.586670     -212.169785      -70.587318
 H         -76.361389     -209.393646      -70.945465
 H         -76.135582     -210.915039      -71.743782
 H         -79.755852     -210.571533      -73.356194
 H         -78.502586     -211.752258      -73.079445
 H         -78.027954     -210.322723      -69.534843
 H         -76.700905     -211.467651      -69.546959
 H         -80.367012     -212.380005      -71.727539
 H         -80.078934     -210.781281      -70.899368
 H         -78.950836     -212.525452      -69.622871
 H         -78.237846     -213.059387      -71.092110
