20
 generated by VMD
 C         -41.344864     -102.346550      -35.426323
 N         -41.538799     -103.379547      -35.923424
 H         -39.334042     -105.184700      -33.845146
 H         -41.088493     -101.385818      -34.909706
 C         -38.668911     -105.123817      -32.926414
 C         -37.295303     -104.405960      -32.828758
 C         -38.907978     -106.226936      -31.864080
 C         -36.462559     -104.613594      -31.526505
 C         -37.931789     -106.373001      -30.802912
 C         -36.525501     -106.067871      -31.175060
 H         -37.454941     -103.313316      -32.961769
 H         -36.823837     -104.773750      -33.704704
 H         -39.965332     -106.138359      -31.498466
 H         -38.918991     -107.061996      -32.478256
 H         -36.817692     -104.059074      -30.701452
 H         -35.464069     -104.327232      -31.776888
 H         -38.017696     -107.387276      -30.225620
 H         -38.154205     -105.672379      -30.015963
 H         -36.007008     -106.243057      -30.233685
 H         -36.059204     -106.742538      -31.885023
