20
 generated by VMD
 C         -12.752263      -28.664534       -5.957566
 N         -12.993502      -27.689034       -5.471257
 H         -11.571743      -31.415554       -3.610654
 H         -11.269537      -29.762400       -4.520356
 C         -10.812497      -30.659636       -4.015010
 C          -9.841684      -31.387623       -4.956106
 C         -10.064853      -30.069118       -2.798676
 C          -8.576919      -30.631208       -5.323849
 C          -8.911358      -29.198212       -3.136278
 C          -7.954920      -29.897560       -4.084949
 H         -10.322730      -31.635164       -5.961760
 H          -9.668690      -32.306858       -4.422709
 H         -10.793697      -29.560923       -2.192703
 H          -9.711869      -30.895172       -2.194900
 H          -8.871307      -29.870543       -6.081367
 H          -7.885928      -31.347729       -5.831546
 H          -8.348234      -29.001492       -2.169705
 H          -9.207821      -28.286366       -3.594596
 H          -7.247552      -29.135149       -4.340308
 H          -7.294182      -30.566608       -3.517548
