20
 generated by VMD
 C         -43.265072     -121.217735      -35.684502
 N         -43.306915     -120.491165      -34.782349
 H         -44.572323     -122.115807      -39.210739
 H         -42.992847     -121.799232      -36.613731
 C         -44.510773     -121.066132      -39.136105
 C         -43.343033     -120.392570      -39.775837
 C         -45.711758     -120.200829      -38.696091
 C         -43.528915     -119.121429      -40.495018
 C         -45.886837     -118.882545      -39.425846
 C         -44.490795     -118.214233      -39.609676
 H         -43.108093     -121.092285      -40.538483
 H         -42.612804     -120.231155      -38.979195
 H         -46.662193     -120.747101      -38.862381
 H         -45.668732     -120.055054      -37.611843
 H         -43.929028     -119.270844      -41.574333
 H         -42.614311     -118.499641      -40.529495
 H         -46.530277     -118.088943      -38.866924
 H         -46.334255     -118.989243      -40.553856
 H         -44.765156     -117.272980      -40.048710
 H         -44.057682     -118.103882      -38.605762
