20
 generated by VMD
 C         -39.814285     -105.584396      -37.017727
 N         -40.351772     -106.515968      -37.467529
 H         -38.762096     -108.039261      -35.078041
 H         -39.198120     -104.824623      -36.615826
 C         -39.282688     -108.414986      -34.233150
 C         -38.485153     -109.216331      -33.226070
 C         -40.587284     -109.109138      -34.399555
 C         -39.128788     -109.378700      -31.901056
 C         -41.359646     -109.339043      -33.157001
 C         -40.487820     -110.116524      -32.102955
 H         -37.487751     -108.658035      -32.994934
 H         -38.077774     -110.217194      -33.640289
 H         -41.098827     -108.422302      -35.020267
 H         -40.592648     -110.076965      -35.011124
 H         -39.289284     -108.444756      -31.381420
 H         -38.525406     -109.922829      -31.213171
 H         -42.284679     -109.894760      -33.342667
 H         -41.717270     -108.394958      -32.758152
 H         -41.096027     -110.108322      -31.118237
 H         -40.339985     -111.219879      -32.382851
