20
 generated by VMD
 C         -19.773264      -58.556656      -17.221956
 N         -19.254274      -58.808197      -18.228430
 H         -22.439825      -59.690231      -16.428211
 H         -19.918365      -58.203045      -16.200645
 C         -22.706076      -60.753944      -16.172602
 C         -23.562862      -61.567146      -17.092388
 C         -22.666201      -61.226631      -14.757148
 C         -23.476067      -63.116135      -17.004444
 C         -22.099762      -62.654453      -14.795434
 C         -23.079130      -63.535656      -15.573784
 H         -23.283922      -61.269527      -18.161692
 H         -24.692173      -61.189659      -16.928343
 H         -22.083406      -60.653618      -14.092428
 H         -23.669056      -61.078083      -14.391893
 H         -22.760855      -63.471085      -17.724653
 H         -24.422779      -63.554352      -17.232832
 H         -21.960670      -63.077866      -13.776000
 H         -21.093145      -62.727501      -15.197107
 H         -22.862049      -64.601067      -15.544324
 H         -23.935156      -63.442661      -14.972280
