20
 generated by VMD
 C         -11.822743      -26.453432       -0.308985
 N         -12.735957      -26.313654       -0.911468
 H         -10.173534      -26.335888       -3.635921
 H          -9.327142      -25.556501       -4.994226
 C          -9.180788      -26.115713       -4.050575
 C          -8.292327      -27.339025       -4.144860
 C          -8.582938      -25.134853       -3.062915
 C          -6.885763      -26.987089       -4.595943
 C          -7.114083      -24.798908       -3.459562
 C          -6.293170      -26.072628       -3.532432
 H          -8.724025      -28.050854       -4.982988
 H          -8.267480      -27.776133       -3.138310
 H          -9.176057      -24.191216       -3.115635
 H          -8.531508      -25.531387       -2.066444
 H          -6.980073      -26.357109       -5.531659
 H          -6.237072      -27.887630       -4.752628
 H          -6.732424      -24.104637       -2.711471
 H          -7.092431      -24.220207       -4.434004
 H          -5.266734      -25.775681       -3.799084
 H          -6.257534      -26.581453       -2.567028
