20
 generated by VMD
 C         -40.913116     -100.803185      -32.788422
 N         -41.665913     -101.226707      -31.998327
 H         -38.312031     -103.260147      -32.452942
 H         -40.315777     -100.461510      -33.629257
 C         -37.392796     -102.845612      -31.939812
 C         -36.134018     -102.716301      -32.855686
 C         -37.284313     -102.784622      -30.485586
 C         -35.222015     -101.621880      -32.388992
 C         -36.298542     -101.659325      -30.119980
 C         -35.032951     -101.639847      -30.867514
 H         -36.390347     -102.361710      -33.850590
 H         -35.622272     -103.653854      -33.017498
 H         -38.261063     -102.693680      -30.023779
 H         -36.860245     -103.760323      -30.198906
 H         -35.672626     -100.634705      -32.555038
 H         -34.230175     -101.690575      -32.891796
 H         -35.862156     -101.705292      -29.087132
 H         -36.787766     -100.647484      -30.188028
 H         -34.498089     -100.802048      -30.490835
 H         -34.389999     -102.511803      -30.620529
