20
 generated by VMD
 C         -49.324680     -127.499138      -39.010693
 N         -50.029030     -126.878540      -38.334251
 H         -46.993774     -125.195206      -40.183903
 H         -48.586155     -127.972595      -39.617531
 C         -46.078003     -124.783005      -40.432869
 C         -44.769554     -125.397209      -40.207119
 C         -46.370960     -123.382713      -40.769756
 C         -43.677639     -124.724976      -41.064209
 C         -45.158157     -122.784752      -41.533012
 C         -43.748669     -123.161339      -41.081024
 H         -44.735600     -126.417557      -40.390133
 H         -44.500340     -125.325974      -39.160576
 H         -47.289291     -123.112045      -41.360451
 H         -46.420929     -122.777290      -39.788490
 H         -43.870239     -125.112114      -42.098030
 H         -42.637524     -124.999428      -40.751205
 H         -45.220699     -121.633408      -41.706310
 H         -45.098270     -123.238228      -42.569798
 H         -42.972153     -122.745766      -41.813435
 H         -43.546967     -122.874237      -40.072727
