20
 generated by VMD
 C         -58.854424     -168.485519      -55.001328
 N         -57.750450     -168.737350      -54.926071
 H         -61.951778     -168.627716      -55.685047
 H         -59.899529     -168.234238      -55.007519
 C         -62.416832     -167.868820      -56.279736
 C         -62.734215     -168.007843      -57.712482
 C         -62.867790     -166.572174      -55.699799
 C         -64.066895     -167.575836      -58.090698
 C         -64.275566     -166.198380      -56.022655
 C         -64.499496     -166.204193      -57.511993
 H         -62.514927     -168.915436      -58.084332
 H         -62.089870     -167.253891      -58.329765
 H         -62.696434     -166.550430      -54.580757
 H         -62.113197     -165.800125      -56.152275
 H         -64.827454     -168.255676      -57.783020
 H         -64.293457     -167.539825      -59.123116
 H         -64.544212     -165.261948      -55.655014
 H         -64.829803     -166.838257      -55.492561
 H         -65.558907     -166.004547      -57.841400
 H         -63.936722     -165.406113      -58.021286
