20
 generated by VMD
 C          -3.397249      -19.600853        3.210616
 N          -3.640105      -18.513742        3.126034
 H          -5.463091      -20.536087       -0.083208
 H          -6.569522      -21.247757       -1.265307
 C          -6.227796      -20.309603       -0.826321
 C          -5.585901      -19.443012       -1.926678
 C          -7.505964      -19.679361       -0.215730
 C          -6.635417      -19.150906       -2.973297
 C          -8.574889      -19.559031       -1.338894
 C          -8.010266      -18.729328       -2.511556
 H          -4.654886      -19.902279       -2.352815
 H          -5.240436      -18.521788       -1.492998
 H          -7.792005      -20.243654        0.742151
 H          -7.304940      -18.614365        0.221380
 H          -6.701986      -20.103230       -3.550116
 H          -6.210755      -18.355480       -3.686838
 H          -9.499262      -19.073332       -0.901677
 H          -8.874490      -20.567112       -1.691909
 H          -8.724479      -18.766987       -3.331860
 H          -8.007563      -17.648613       -2.278747
