20
 generated by VMD
 C         -48.092705     -133.791214      -47.549129
 N         -48.119083     -133.311920      -48.568577
 H         -49.288113     -134.242752      -44.072815
 H         -48.115032     -134.366928      -46.661919
 C         -49.969803     -134.958405      -43.682884
 C         -50.140987     -136.191315      -44.481609
 C         -51.036686     -134.678741      -42.608326
 C         -50.494942     -137.429962      -43.629440
 C         -51.334381     -135.927826      -41.795998
 C         -51.680817     -137.089493      -42.639118
 H         -49.285286     -136.295914      -45.103657
 H         -50.950775     -135.863968      -45.103054
 H         -50.659817     -133.797958      -42.052364
 H         -51.894630     -134.366226      -43.103260
 H         -49.628403     -137.777298      -43.118015
 H         -50.726334     -138.279831      -44.369675
 H         -52.174797     -135.971115      -41.124977
 H         -50.429794     -136.296326      -41.182930
 H         -51.956280     -138.055939      -42.059170
 H         -52.517765     -136.835373      -43.228699
