20
 generated by VMD
 C         -41.557480     -119.621269      -34.294247
 N         -41.550453     -120.381714      -35.209358
 H         -43.241638     -118.480263      -36.805519
 H         -41.504799     -119.073914      -33.400368
 C         -43.838219     -118.398895      -37.744202
 C         -42.974171     -118.335732      -39.020466
 C         -45.171478     -117.767616      -37.790276
 C         -43.874138     -118.632317      -40.244301
 C         -45.921627     -118.106674      -39.048298
 C         -45.163170     -117.925117      -40.358486
 H         -42.191662     -119.061195      -38.792488
 H         -42.519783     -117.232674      -39.033169
 H         -45.778362     -117.952919      -36.954693
 H         -44.926456     -116.685471      -37.805645
 H         -44.001427     -119.762527      -40.310585
 H         -43.196220     -118.370125      -41.075172
 H         -46.897251     -117.544937      -39.026272
 H         -46.177345     -119.153496      -39.000038
 H         -45.793121     -118.234688      -41.161575
 H         -44.926365     -116.861938      -40.498871
