20
 generated by VMD
 C         -48.381710     -135.774094      -46.321743
 N         -47.660202     -136.014801      -45.462074
 H         -52.225235     -134.908920      -45.641399
 H         -49.251568     -135.497299      -46.936207
 C         -51.859974     -135.880814      -45.211975
 C         -52.497406     -137.125641      -45.645321
 C         -51.206936     -135.599716      -43.835438
 C         -51.631733     -138.351227      -45.154823
 C         -50.407593     -136.842392      -43.405746
 C         -51.094540     -138.125885      -43.685669
 H         -52.696266     -137.188599      -46.701126
 H         -53.477085     -137.116119      -45.120880
 H         -50.549774     -134.781143      -43.806522
 H         -51.915329     -135.362427      -43.057713
 H         -50.761913     -138.449280      -45.886208
 H         -52.257511     -139.209015      -45.338718
 H         -50.220684     -136.882767      -42.282589
 H         -49.350739     -136.809387      -43.903614
 H         -50.372055     -138.874252      -43.463573
 H         -52.048435     -138.003525      -42.963570
