20
 generated by VMD
 C         -13.296430      -44.764866       -6.334530
 N         -14.194036      -44.242615       -5.957445
 H         -15.028620      -44.674427       -8.949068
 H         -14.330069      -43.927704      -10.316522
 C         -15.272158      -44.397366      -10.013284
 C         -16.416689      -43.350014      -10.046275
 C         -15.615674      -45.657467      -10.820509
 C         -16.945265      -43.049221      -11.440493
 C         -16.128111      -45.223682      -12.190556
 C         -17.361506      -44.266560      -12.211332
 H         -16.151529      -42.465492       -9.460076
 H         -17.293274      -43.674068       -9.488749
 H         -14.818764      -46.395016      -10.876375
 H         -16.339985      -46.243900      -10.222065
 H         -16.205708      -42.456909      -12.019121
 H         -17.847454      -42.407009      -11.321441
 H         -16.250483      -46.118591      -12.816706
 H         -15.375596      -44.695496      -12.711786
 H         -17.622318      -43.926830      -13.223616
 H         -18.179157      -44.848866      -11.764572
