20
 generated by VMD
 C         -31.051081      -74.855148      -22.116844
 N         -31.333237      -75.885735      -21.714371
 H         -28.678255      -76.664032      -21.384180
 H         -31.015175      -73.741699      -22.020069
 C         -27.637514      -76.430168      -21.262270
 C         -26.725822      -77.377533      -22.002926
 C         -27.128359      -75.231796      -20.599440
 C         -25.837093      -76.564301      -22.891623
 C         -26.081709      -74.489120      -21.627684
 C         -25.054413      -75.463470      -22.196699
 H         -27.243290      -78.057625      -22.621927
 H         -26.020605      -77.937576      -21.340452
 H         -28.068504      -74.492821      -20.421783
 H         -26.723354      -75.454376      -19.585461
 H         -26.429745      -76.306198      -23.761377
 H         -25.021414      -77.154243      -23.269037
 H         -25.557947      -73.719498      -21.077635
 H         -26.572073      -73.966324      -22.463041
 H         -24.530464      -74.871735      -22.944216
 H         -24.443394      -75.913261      -21.355541
