20
 generated by VMD
 C         -13.857829      -42.900715       -6.076657
 N         -12.895323      -43.403160       -6.340604
 H         -14.779154      -45.053478       -8.912278
 H         -14.280040      -43.780426       -9.991072
 C         -15.117159      -44.479736       -9.796846
 C         -16.365488      -43.698025       -9.465844
 C         -15.480057      -45.317230      -11.014789
 C         -16.966442      -42.784821      -10.583881
 C         -15.892059      -44.360004      -12.176847
 C         -17.133514      -43.498772      -11.911618
 H         -16.115118      -43.061043       -8.596495
 H         -17.103214      -44.334091       -8.983773
 H         -14.670884      -45.984371      -11.297741
 H         -16.269564      -45.992825      -10.837996
 H         -16.257618      -41.929066      -10.739385
 H         -17.913227      -42.309357      -10.274226
 H         -15.984594      -45.032200      -13.033909
 H         -15.113724      -43.613071      -12.423821
 H         -17.290789      -42.727917      -12.706734
 H         -17.984653      -44.188908      -11.875899
