20
 generated by VMD
 C         -57.339417     -150.891617      -48.535831
 N         -58.400192     -151.499237      -48.532612
 H         -54.599621     -148.989410      -47.352524
 H         -56.510002     -150.203995      -48.586048
 C         -54.453270     -148.673767      -48.411457
 C         -53.802940     -149.660721      -49.325188
 C         -54.554485     -147.272263      -48.810448
 C         -54.317772     -149.459122      -50.704716
 C         -55.164917     -147.261078      -50.218987
 C         -54.391464     -148.020538      -51.217178
 H         -54.039551     -150.772736      -49.157551
 H         -52.650612     -149.678238      -49.215179
 H         -55.062515     -146.760101      -48.078892
 H         -53.569267     -146.775131      -48.786373
 H         -55.388332     -149.716507      -50.782963
 H         -53.866100     -150.215652      -51.384521
 H         -55.135628     -146.270920      -50.443211
 H         -56.274807     -147.477722      -50.313080
 H         -54.806808     -148.068985      -52.218296
 H         -53.317661     -147.708923      -51.358654
