20
 generated by VMD
 C         -70.256828     -181.318542      -62.667355
 N         -70.949638     -180.490463      -63.043285
 H         -67.013031     -181.828613      -60.819984
 H         -69.625168     -182.101562      -62.227367
 C         -66.465027     -180.889099      -60.785332
 C         -65.050232     -180.893539      -60.215740
 C         -67.322937     -179.712479      -60.565475
 C         -64.313004     -179.663498      -60.863602
 C         -66.475471     -178.402451      -60.867222
 C         -65.024231     -178.392365      -60.401241
 H         -64.556961     -181.923645      -60.241024
 H         -65.233757     -180.824783      -59.042080
 H         -68.201660     -179.719955      -61.143902
 H         -67.623314     -179.558975      -59.522854
 H         -64.213257     -179.867981      -61.906666
 H         -63.412918     -179.494934      -60.393944
 H         -66.959206     -177.514999      -60.343792
 H         -66.494194     -178.066650      -61.938240
 H         -64.507965     -177.528900      -60.801373
 H         -65.015518     -178.229416      -59.280155
