20
 generated by VMD
 C         -31.359123      -78.396210      -26.306229
 N         -31.460732      -77.923782      -27.385597
 H         -29.278315      -79.622864      -24.472038
 H         -31.067160      -78.948822      -25.367586
 C         -29.074062      -80.336075      -23.565542
 C         -27.691236      -80.409904      -23.199476
 C         -29.986774      -81.431839      -23.178280
 C         -27.474625      -80.961197      -21.786449
 C         -29.736248      -82.009850      -21.804541
 C         -28.254696      -82.255913      -21.671274
 H         -27.293945      -79.447899      -23.329090
 H         -27.178375      -81.149719      -23.796225
 H         -30.940166      -81.153732      -23.469831
 H         -29.681328      -82.289803      -23.920664
 H         -27.630960      -80.218353      -21.057827
 H         -26.387918      -81.169144      -21.751680
 H         -30.387039      -82.941879      -21.764366
 H         -30.037586      -81.274200      -20.978418
 H         -27.940285      -82.801941      -20.769949
 H         -28.099421      -82.910782      -22.490911
