20
 generated by VMD
 C         -29.432491      -90.667419      -25.051977
 N         -28.974157      -91.734818      -25.111073
 H         -32.132797      -91.184540      -27.524418
 H         -29.759384      -89.573555      -24.923370
 C         -33.139690      -90.829712      -27.772053
 C         -34.359188      -91.594933      -27.507059
 C         -33.038273      -89.574707      -28.552742
 C         -35.582645      -90.641235      -27.325428
 C         -34.413074      -88.778458      -28.644066
 C         -35.625565      -89.606697      -28.560333
 H         -34.215340      -92.001686      -26.532166
 H         -34.581020      -92.382675      -28.129210
 H         -32.204712      -88.981499      -28.065411
 H         -32.567909      -89.710022      -29.551264
 H         -35.639584      -90.126099      -26.294327
 H         -36.614300      -91.175919      -27.466871
 H         -34.354481      -88.365295      -29.674122
 H         -34.345062      -87.975494      -27.872345
 H         -36.554516      -88.981209      -28.440704
 H         -35.733440      -90.182907      -29.497185
