20
 generated by VMD
 C         -11.544639      -41.608967       -6.907815
 N         -11.617307      -42.402477       -6.136176
 H         -14.738019      -42.672230       -8.109293
 H         -15.012082      -41.501293       -9.383739
 C         -15.288963      -42.554996       -9.144487
 C         -16.771978      -42.737514       -8.949244
 C         -14.811447      -43.531277      -10.224216
 C         -17.516937      -42.475201      -10.263178
 C         -15.650997      -43.419636      -11.470675
 C         -17.138308      -43.468933      -11.316182
 H         -17.184076      -42.095348       -8.163280
 H         -16.944510      -43.830391       -8.740224
 H         -13.771009      -43.355679      -10.469250
 H         -14.921233      -44.608913       -9.895812
 H         -17.301193      -41.476852      -10.631051
 H         -18.555449      -42.494247       -9.982972
 H         -15.306713      -44.182507      -12.218032
 H         -15.406398      -42.527676      -12.011648
 H         -17.615938      -43.186657      -12.271391
 H         -17.412960      -44.525753      -11.204198
