20
 generated by VMD
 C         -38.013111     -109.903290      -36.286610
 N         -37.469566     -108.921204      -36.061272
 H         -40.230179     -113.113068      -36.533943
 H         -38.679520     -110.747940      -36.240383
 C         -41.255081     -112.950531      -36.219105
 C         -42.438656     -113.792648      -36.585968
 C         -41.535103     -111.812447      -35.132515
 C         -43.314945     -114.168022      -35.348049
 C         -42.433914     -112.236214      -34.021763
 C         -43.691784     -112.864616      -34.617435
 H         -42.190331     -114.783875      -36.971519
 H         -43.034580     -113.381180      -37.404392
 H         -40.551208     -111.570465      -34.926521
 H         -41.932384     -111.020348      -35.713024
 H         -42.560856     -114.702835      -34.738438
 H         -44.166344     -114.737434      -35.633518
 H         -42.681881     -111.374962      -33.492374
 H         -42.043884     -113.016136      -33.447193
 H         -44.632217     -113.030579      -33.904442
 H         -44.042023     -112.283455      -35.423954
