20
 generated by VMD
 C         -41.443371     -120.047409      -34.018906
 N         -41.921268     -120.925255      -34.670269
 H         -43.522087     -119.188263      -37.248569
 H         -41.162529     -119.369225      -33.285011
 C         -43.943974     -118.721008      -38.070503
 C         -43.093544     -118.615715      -39.254032
 C         -45.235954     -118.031410      -38.028610
 C         -43.887325     -118.688004      -40.564095
 C         -46.023079     -118.335579      -39.303768
 C         -45.289356     -117.937950      -40.554222
 H         -42.539200     -119.506714      -39.275150
 H         -42.630074     -117.657707      -39.324905
 H         -45.876793     -118.403931      -37.196690
 H         -45.007782     -116.961441      -37.831646
 H         -44.018951     -119.723190      -40.765179
 H         -43.346203     -118.363968      -41.447170
 H         -47.017990     -117.869507      -39.291088
 H         -46.202358     -119.551208      -39.429153
 H         -45.916763     -118.330620      -41.434105
 H         -45.098434     -116.883751      -40.697784
