20
 generated by VMD
 C         -56.542480     -150.138687      -47.641758
 N         -57.639835     -150.354553      -47.872776
 H         -53.629551     -148.655365      -47.421841
 H         -55.555851     -149.857285      -47.499073
 C         -53.692104     -148.028107      -48.366795
 C         -53.029869     -148.429001      -49.629417
 C         -54.443085     -146.697433      -48.623478
 C         -54.151058     -148.753799      -50.663792
 C         -55.610081     -146.838806      -49.668991
 C         -54.955017     -147.435135      -50.955883
 H         -52.407307     -149.270416      -49.368771
 H         -52.398891     -147.650848      -50.214558
 H         -54.764351     -146.105057      -47.824558
 H         -53.640263     -146.215073      -49.203548
 H         -54.867802     -149.394714      -50.189869
 H         -53.860825     -149.260574      -51.586159
 H         -56.020756     -145.867172      -49.740768
 H         -56.303799     -147.599915      -49.252411
 H         -55.714897     -147.587082      -51.690407
 H         -54.318481     -146.685257      -51.449883
