20
 generated by VMD
 C         -11.783618      -25.823446       -0.887328
 N         -11.969799      -25.221823        0.034922
 H          -8.039886      -26.263302       -1.348988
 H          -9.211205      -25.768064       -2.660168
 C          -8.145216      -25.837273       -2.377052
 C          -7.355418      -26.649780       -3.356865
 C          -7.496194      -24.495214       -2.228273
 C          -7.349050      -25.840181       -4.706866
 C          -7.454382      -23.668573       -3.478242
 C          -6.684586      -24.488394       -4.498666
 H          -7.816507      -27.691990       -3.479373
 H          -6.309777      -26.976233       -3.128238
 H          -8.144995      -24.006109       -1.456181
 H          -6.554319      -24.599009       -1.680406
 H          -8.378211      -25.797474       -5.159997
 H          -6.769808      -26.414888       -5.455902
 H          -6.901426      -22.742470       -3.256968
 H          -8.459922      -23.462639       -3.912204
 H          -6.855190      -23.982912       -5.457267
 H          -5.638312      -24.597298       -4.232248
