20
 generated by VMD
 C         -59.960678     -172.054459      -55.230255
 N         -59.767635     -173.084091      -54.816463
 H         -62.958546     -170.234665      -56.370697
 H         -60.239147     -171.121277      -55.646870
 C         -63.521305     -169.469803      -56.874527
 C         -62.614346     -168.258820      -57.438667
 C         -65.060341     -169.590485      -57.121899
 C         -63.211838     -167.839493      -58.834225
 C         -65.342224     -169.109818      -58.582169
 C         -64.718727     -167.821335      -58.887794
 H         -61.598904     -168.537766      -57.369698
 H         -62.884422     -167.422287      -56.690544
 H         -65.270660     -170.639999      -56.999100
 H         -65.437965     -168.902405      -56.381683
 H         -62.780968     -168.579987      -59.656445
 H         -62.872025     -166.835342      -59.178394
 H         -66.385925     -168.912796      -58.518276
 H         -65.051628     -169.882690      -59.289360
 H         -64.980309     -167.566116      -59.942039
 H         -64.945061     -167.001022      -58.258556
