20
 generated by VMD
 C         -12.858286      -27.136751       -2.354758
 N         -11.995934      -27.599146       -1.800935
 H         -10.437443      -26.451590       -4.649011
 H          -8.905789      -26.065008       -5.415721
 C          -9.337706      -26.480249       -4.478795
 C          -9.023850      -27.940102       -4.405451
 C          -8.809856      -25.677237       -3.307105
 C          -7.546909      -28.194279       -4.348300
 C          -7.278862      -25.936319       -3.107843
 C          -6.909278      -27.418341       -3.244154
 H          -9.551676      -28.392015       -5.196821
 H          -9.441808      -28.376173       -3.456108
 H          -8.957067      -24.605215       -3.402188
 H          -9.275282      -26.104324       -2.396190
 H          -7.124950      -27.834852       -5.260493
 H          -7.307411      -29.215477       -4.374256
 H          -6.765997      -25.437647       -2.253014
 H          -6.786859      -25.434898       -3.944271
 H          -5.842706      -27.624125       -3.224219
 H          -7.274882      -27.908232       -2.281284
