20
 generated by VMD
 C         -39.442642     -105.569031      -37.200279
 N         -40.579327     -105.461594      -37.098209
 H         -39.323967     -107.744370      -35.216026
 H         -38.410007     -105.866821      -37.083614
 C         -39.555008     -108.366570      -34.320667
 C         -38.387539     -108.693886      -33.338814
 C         -40.549526     -109.439644      -34.272396
 C         -38.931946     -108.742104      -31.931480
 C         -41.144077     -109.455040      -32.762012
 C         -40.116299     -109.671768      -31.747339
 H         -37.540031     -107.990623      -33.535709
 H         -38.011005     -109.681015      -33.697853
 H         -41.213348     -109.367081      -35.054886
 H         -40.105530     -110.451584      -34.357082
 H         -39.170723     -107.751091      -31.572067
 H         -38.161228     -109.062782      -31.294476
 H         -41.927753     -110.252510      -32.685043
 H         -41.660191     -108.493637      -32.614204
 H         -40.599979     -109.615234      -30.735537
 H         -39.814091     -110.707405      -31.880440
