20
 generated by VMD
 C         -52.897213     -146.679977      -44.538670
 N         -51.796299     -146.748001      -44.925022
 H         -54.218906     -146.263214      -47.490784
 H         -53.893291     -146.549088      -44.206440
 C         -54.046406     -145.296036      -47.886753
 C         -52.933998     -145.158356      -49.001930
 C         -54.927238     -144.171097      -47.616245
 C         -53.466766     -144.523529      -50.291367
 C         -55.291752     -143.428314      -48.913723
 C         -54.143688     -143.292328      -49.826569
 H         -52.643696     -146.268860      -49.170494
 H         -52.037468     -144.635056      -48.703056
 H         -55.883026     -144.521576      -47.292671
 H         -54.253548     -143.461060      -47.108459
 H         -54.138062     -145.142502      -50.798782
 H         -52.554218     -144.302032      -50.839573
 H         -55.750137     -142.460342      -48.624470
 H         -56.002468     -143.992020      -49.486549
 H         -54.536987     -142.831955      -50.762119
 H         -53.375877     -142.520096      -49.517853
