20
 generated by VMD
 C         -35.425270      -97.279137      -25.974710
 N         -34.432983      -97.844879      -25.999407
 H         -35.472244      -94.516586      -27.661579
 H         -36.420822      -96.703941      -25.813871
 C         -35.281322      -94.225838      -28.696579
 C         -35.975697      -95.154602      -29.741016
 C         -33.928493      -93.691994      -28.978493
 C         -35.767769      -94.594177      -31.124907
 C         -33.746994      -93.390465      -30.482115
 C         -34.314560      -94.309494      -31.434137
 H         -37.022850      -95.139603      -29.443600
 H         -35.653557      -96.190796      -29.619514
 H         -33.686687      -92.760170      -28.438740
 H         -33.148201      -94.420631      -28.535557
 H         -36.395378      -93.741234      -31.292828
 H         -36.174675      -95.317039      -31.789717
 H         -32.781326      -93.221718      -30.830759
 H         -34.133938      -92.350174      -30.518908
 H         -34.369026      -93.924309      -32.538334
 H         -33.681095      -95.301064      -31.385460
