20
 generated by VMD
 C         -24.549513      -70.034035      -16.461803
 N         -24.546896      -70.523811      -15.433340
 H         -23.682491      -67.176376      -19.100134
 H         -24.330790      -69.491150      -17.469227
 C         -24.320601      -67.918335      -19.648577
 C         -23.746635      -68.729500      -20.832781
 C         -25.755665      -67.826981      -19.533520
 C         -24.750006      -69.884552      -21.188522
 C         -26.672363      -69.013412      -19.873722
 C         -26.258804      -69.576202      -21.303528
 H         -22.670811      -69.214088      -20.589668
 H         -23.590460      -67.996483      -21.626305
 H         -25.916658      -67.688034      -18.497774
 H         -26.021191      -67.061760      -20.249598
 H         -24.565277      -70.657661      -20.388323
 H         -24.365643      -70.387177      -22.112335
 H         -27.774944      -68.659897      -19.867178
 H         -26.570511      -69.866409      -19.058218
 H         -26.760832      -70.547562      -21.501600
 H         -26.430042      -68.761887      -22.061541
