20
 generated by VMD
 C         -27.827948      -86.674683      -26.822329
 N         -28.107780      -85.593132      -26.413162
 H         -30.873507      -86.077644      -25.316277
 H         -27.524807      -87.559181      -27.244764
 C         -31.886881      -86.462524      -25.638350
 C         -32.744789      -86.886299      -24.421097
 C         -31.983385      -87.157310      -26.992455
 C         -34.174694      -87.396172      -24.811554
 C         -33.477718      -87.421974      -27.176552
 C         -34.029869      -88.199028      -26.032934
 H         -32.724514      -85.956879      -23.768391
 H         -32.215549      -87.665382      -23.782803
 H         -31.696472      -86.535126      -27.861582
 H         -31.529169      -88.113632      -27.069569
 H         -34.865910      -86.497108      -25.045233
 H         -34.746677      -87.817207      -23.975643
 H         -33.599449      -87.909744      -28.132236
 H         -34.051456      -86.417229      -27.365122
 H         -34.951714      -88.530945      -26.573778
 H         -33.384861      -89.074699      -25.752197
