20
 generated by VMD
 C         -46.361835     -124.313820      -35.895199
 N         -46.874031     -125.272415      -35.545712
 H         -44.430145     -121.690254      -37.883717
 H         -45.779469     -123.458366      -36.251064
 C         -44.480042     -121.526413      -38.984024
 C         -43.275112     -121.492386      -39.799576
 C         -45.674107     -120.764999      -39.587341
 C         -43.463215     -121.776886      -41.315361
 C         -45.948944     -120.979591      -41.053452
 C         -44.651318     -120.842773      -41.884411
 H         -42.710285     -122.285934      -39.337597
 H         -42.849880     -120.503471      -39.769962
 H         -46.509056     -121.149101      -39.072803
 H         -45.769192     -119.650719      -39.396984
 H         -43.676258     -122.816833      -41.467899
 H         -42.533642     -121.282921      -41.718746
 H         -46.629951     -120.169762      -41.468758
 H         -46.432629     -121.881653      -41.396145
 H         -44.815620     -121.170464      -42.939796
 H         -44.309166     -119.868797      -42.040077
