20
 generated by VMD
 C         -18.346172      -48.783051       -7.155042
 N         -19.055338      -49.634094       -7.164236
 H         -16.105871      -47.671124      -10.084585
 H         -16.314478      -48.964283      -11.066262
 C         -16.288973      -47.887520      -11.121530
 C         -15.164968      -47.379436      -12.040696
 C         -17.613081      -47.390175      -11.598020
 C         -15.355596      -47.665768      -13.523094
 C         -17.923763      -47.559277      -13.079194
 C         -16.733809      -47.110863      -13.971855
 H         -14.235066      -47.859135      -11.809204
 H         -15.025573      -46.313137      -11.836906
 H         -18.390392      -47.945599      -11.030189
 H         -17.711761      -46.325279      -11.335369
 H         -15.366725      -48.763359      -13.658408
 H         -14.527506      -47.154404      -14.057807
 H         -18.774193      -46.900162      -13.291642
 H         -18.301937      -48.566811      -13.349284
 H         -16.881697      -47.377991      -15.011171
 H         -16.718933      -46.045731      -13.954338
