20
 generated by VMD
 C         -30.766584      -78.087570      -25.894209
 N         -31.856871      -77.631332      -26.000633
 H         -29.421926      -77.933327      -22.750292
 H         -29.884771      -78.569000      -25.666550
 C         -28.900341      -78.844574      -22.911787
 C         -27.518850      -79.138809      -23.309622
 C         -29.645279      -80.071686      -22.550194
 C         -26.702696      -79.884781      -22.189604
 C         -29.057331      -80.890869      -21.410450
 C         -27.482166      -81.032211      -21.507975
 H         -27.053072      -78.160942      -23.630331
 H         -27.453566      -79.732269      -24.216421
 H         -30.724577      -79.728531      -22.426102
 H         -29.732830      -80.677048      -23.392233
 H         -26.570353      -79.187775      -21.327065
 H         -25.696882      -80.085632      -22.594584
 H         -29.605097      -81.767395      -21.429827
 H         -29.165686      -80.175247      -20.624062
 H         -27.064373      -81.194229      -20.488064
 H         -27.330776      -82.003723      -22.154463
