20
 generated by VMD
 C         -19.438120      -60.198002      -17.170099
 N         -19.123718      -60.782223      -16.208956
 H         -22.239481      -62.228882      -17.903309
 H         -19.563118      -59.665794      -18.215403
 C         -23.250387      -62.399502      -17.488749
 C         -24.229662      -63.003212      -18.378124
 C         -23.405235      -62.473709      -15.972914
 C         -24.172285      -64.513206      -17.864790
 C         -23.178694      -63.997452      -15.686524
 C         -24.338272      -64.794441      -16.425642
 H         -24.015539      -62.969929      -19.493511
 H         -25.184824      -62.480705      -18.272352
 H         -22.566303      -61.896976      -15.462337
 H         -24.310085      -62.018406      -15.549141
 H         -23.298214      -64.889542      -18.361176
 H         -25.042603      -64.901703      -18.368509
 H         -23.293602      -64.187286      -14.666025
 H         -22.207340      -64.331902      -15.921060
 H         -24.154133      -65.897461      -16.182077
 H         -25.345421      -64.448105      -16.054716
