20
 generated by VMD
 C         -68.215240     -195.334824      -64.816978
 N         -68.759666     -196.379150      -64.655029
 H         -71.296921     -194.515091      -66.898766
 H         -67.659821     -194.437820      -64.922546
 C         -72.101410     -193.866104      -67.153145
 C         -72.138649     -192.403702      -66.892220
 C         -73.368973     -194.420746      -67.667595
 C         -73.384789     -192.022247      -66.033524
 C         -74.693787     -193.921066      -66.966339
 C         -74.640312     -192.394348      -66.857620
 H         -72.121468     -191.901901      -67.774704
 H         -71.205589     -192.138733      -66.380669
 H         -73.404984     -194.129684      -68.642715
 H         -73.304382     -195.445755      -67.735016
 H         -73.451546     -190.932510      -65.744507
 H         -73.314148     -192.598389      -65.062721
 H         -74.883125     -194.396545      -65.995247
 H         -75.524635     -194.188583      -67.681335
 H         -74.599136     -191.842865      -67.754944
 H         -75.526665     -191.901596      -66.223419
