20
 generated by VMD
 C         -31.297991      -75.742287      -21.643726
 N         -32.307472      -75.264328      -21.306265
 H         -27.849880      -75.351891      -20.057537
 H         -30.275999      -76.144951      -21.539387
 C         -26.843143      -75.285225      -20.518301
 C         -26.435762      -76.316582      -21.392857
 C         -25.941521      -74.115074      -20.401546
 C         -25.942835      -75.884979      -22.737671
 C         -25.352583      -73.632637      -21.809454
 C         -24.840496      -74.813004      -22.598013
 H         -27.255211      -76.882675      -21.599928
 H         -25.754389      -77.034355      -20.868839
 H         -26.341187      -73.156311      -19.923815
 H         -25.150757      -74.259712      -19.719507
 H         -26.782736      -75.576981      -23.387060
 H         -25.488972      -76.737198      -23.216154
 H         -24.440233      -73.001015      -21.604252
 H         -26.110304      -73.133789      -22.476795
 H         -24.665087      -74.523857      -23.632730
 H         -23.969173      -75.338303      -22.149019
