20
 generated by VMD
 C         -65.416176     -177.484406      -56.493191
 N         -66.082146     -176.931030      -55.749115
 H         -64.080589     -174.949448      -58.809643
 H         -64.734543     -178.087631      -57.124325
 C         -64.321098     -174.079102      -59.310143
 C         -65.439407     -173.216660      -58.805103
 C         -63.575253     -173.751617      -60.677799
 C         -64.991325     -171.715988      -58.722866
 C         -63.107456     -172.271103      -60.656307
 C         -64.187820     -171.265060      -60.055370
 H         -65.760162     -173.477402      -57.777130
 H         -66.318878     -173.123535      -59.401409
 H         -62.763699     -174.335907      -60.543610
 H         -64.254517     -173.917053      -61.496147
 H         -64.352928     -171.498764      -57.898830
 H         -65.909775     -171.145966      -58.605080
 H         -62.732590     -171.905914      -61.598507
 H         -62.163723     -172.249405      -59.967045
 H         -63.687916     -170.293594      -59.792645
 H         -64.867523     -170.910110      -60.865543
