20
 generated by VMD
 C         -56.130672     -150.158142      -47.215683
 N         -57.128521     -150.258835      -46.583851
 H         -53.297531     -147.879883      -47.529617
 H         -55.245647     -150.137848      -47.876270
 C         -53.784557     -147.623383      -48.482922
 C         -53.178799     -148.134323      -49.708832
 C         -54.538887     -146.333939      -48.532875
 C         -54.116150     -148.141739      -50.840321
 C         -55.441860     -146.328125      -49.792400
 C         -54.575806     -146.664490      -51.105392
 H         -52.745762     -149.180511      -49.344273
 H         -52.420067     -147.448334      -50.011559
 H         -55.246025     -146.313614      -47.699593
 H         -53.788261     -145.620590      -48.499226
 H         -55.074669     -148.638626      -50.564606
 H         -53.705765     -148.573929      -51.772984
 H         -55.904278     -145.379410      -49.847080
 H         -56.254227     -147.143539      -49.811661
 H         -55.296177     -146.720657      -51.945999
 H         -53.758060     -145.959091      -51.255199
