20
 generated by VMD
 C         -31.049297      -74.868690      -21.901953
 N         -31.512535      -75.942039      -21.730967
 H         -28.399305      -76.783218      -20.726423
 H         -30.833649      -73.781090      -21.607237
 C         -27.638515      -76.273674      -21.282763
 C         -26.727486      -77.204773      -21.978611
 C         -26.962090      -74.984436      -20.621941
 C         -25.769970      -76.536598      -22.867050
 C         -25.950857      -74.378983      -21.605701
 C         -24.997663      -75.369408      -22.233414
 H         -27.365679      -77.893433      -22.545706
 H         -26.337479      -77.783340      -21.157990
 H         -27.668325      -74.286171      -20.318659
 H         -26.468204      -75.320885      -19.758318
 H         -26.160597      -76.145317      -23.787386
 H         -25.092037      -77.345657      -23.165716
 H         -25.471167      -73.497513      -21.188433
 H         -26.604172      -73.967285      -22.333868
 H         -24.299906      -74.983421      -22.974949
 H         -24.561270      -75.773453      -21.350967
