20
 generated by VMD
 C         -79.971092     -206.948166      -74.104698
 N         -80.445656     -206.206451      -74.871399
 H         -77.914330     -206.628922      -71.912918
 H         -79.274101     -207.540176      -73.514679
 C         -77.085945     -207.257950      -71.778709
 C         -75.654617     -206.683319      -71.560387
 C         -77.147095     -208.574707      -70.908592
 C         -75.387146     -206.281067      -70.050415
 C         -76.945915     -208.260147      -69.488998
 C         -75.702415     -207.516113      -69.152069
 H         -75.320007     -205.764481      -72.083214
 H         -74.961464     -207.388428      -72.034698
 H         -78.101044     -209.071304      -71.098854
 H         -76.444733     -209.335876      -71.371689
 H         -76.114166     -205.536850      -69.718315
 H         -74.346245     -205.876251      -69.952217
 H         -77.053642     -209.256668      -68.960648
 H         -77.769615     -207.657761      -69.095375
 H         -75.880371     -207.022186      -68.171684
 H         -74.866028     -208.258331      -69.024315
