20
 generated by VMD
 C         -49.612423     -133.064789      -47.140945
 N         -49.456379     -131.970779      -47.001789
 H         -47.666149     -134.419373      -43.967384
 H         -49.450478     -134.091782      -47.232243
 C         -48.674061     -134.677917      -43.598118
 C         -49.267216     -136.012711      -44.021778
 C         -49.651772     -133.673111      -43.213436
 C         -49.953407     -136.626007      -42.867165
 C         -50.432194     -134.239914      -41.884487
 C         -51.015385     -135.597473      -42.335724
 H         -48.394299     -136.682877      -44.369167
 H         -49.909985     -135.834885      -44.864296
 H         -49.061474     -132.792831      -42.930943
 H         -50.274487     -133.389160      -43.966648
 H         -49.276196     -136.745544      -42.019127
 H         -50.601017     -137.508896      -43.066273
 H         -51.223621     -133.454803      -41.713646
 H         -49.835808     -134.421249      -40.898254
 H         -51.728924     -136.070587      -41.549595
 H         -51.877323     -135.464874      -43.074780
