20
 generated by VMD
 C         -72.820076     -198.696106      -65.646187
 N         -73.766426     -199.096466      -66.186531
 H         -70.940765     -196.442215      -67.324135
 H         -71.859291     -198.300903      -65.471741
 C         -71.942589     -196.285950      -67.746040
 C         -73.016617     -195.628754      -66.927284
 C         -72.425423     -196.951065      -69.023071
 C         -74.257225     -195.322891      -67.678940
 C         -73.901688     -197.347733      -69.113403
 C         -74.886215     -196.592377      -68.201485
 H         -72.748421     -194.606171      -66.666801
 H         -73.205803     -196.193390      -66.071594
 H         -72.173637     -196.331482      -69.909386
 H         -71.908813     -197.957993      -68.923203
 H         -74.141640     -194.546890      -68.483887
 H         -74.968575     -194.823105      -66.998016
 H         -73.814430     -198.415863      -68.930397
 H         -74.295319     -197.320557      -70.168571
 H         -75.867561     -196.456558      -68.852074
 H         -75.341942     -197.182114      -67.529892
