20
 generated by VMD
 C         -38.960899     -111.472641      -36.512722
 N         -38.327484     -110.491486      -36.670269
 H         -40.281872     -114.413910      -34.705826
 H         -39.378937     -112.508713      -36.560390
 C         -41.205536     -113.941582      -35.144672
 C         -41.624313     -113.912727      -36.560604
 C         -41.953522     -112.909798      -34.375622
 C         -43.175816     -114.097046      -36.776821
 C         -43.439735     -112.989853      -34.487553
 C         -43.800182     -112.953278      -35.951595
 H         -41.034889     -114.738647      -37.035885
 H         -41.311653     -113.109856      -37.189976
 H         -41.644661     -113.092491      -33.320210
 H         -41.550800     -111.884048      -34.598602
 H         -43.628124     -115.012596      -36.273705
 H         -43.384434     -114.005104      -37.823914
 H         -43.813221     -112.012688      -34.018444
 H         -43.887615     -113.781647      -33.788288
 H         -44.811852     -113.030830      -36.126167
 H         -43.440670     -112.014862      -36.404034
