20
 generated by VMD
 C         -56.146812     -149.307709      -45.877850
 N         -55.976612     -150.305801      -45.334614
 H         -53.693531     -148.020920      -47.789948
 H         -56.151112     -148.449783      -46.485390
 C         -54.023777     -147.438110      -48.712875
 C         -52.958328     -147.556824      -49.914394
 C         -54.823448     -146.119034      -48.581654
 C         -53.720348     -146.992828      -51.173141
 C         -55.263000     -145.526794      -49.869705
 C         -54.132298     -145.552933      -50.858109
 H         -52.616291     -148.506744      -50.006523
 H         -52.173035     -146.773865      -49.731567
 H         -55.657448     -146.270950      -47.984409
 H         -54.093380     -145.425400      -48.174957
 H         -54.526653     -147.715271      -51.383198
 H         -53.023804     -146.942871      -51.985832
 H         -55.891151     -144.597504      -49.945560
 H         -55.977295     -146.248901      -50.291935
 H         -54.431057     -145.269348      -51.896755
 H         -53.316601     -144.887085      -50.576633
