20
 generated by VMD
 C          -1.754286      -16.590279        2.518138
 N          -2.032314      -15.506504        2.533916
 H          -4.139456      -15.942748       -0.083156
 H          -4.678262      -17.094862       -1.355741
 C          -4.999025      -16.573786       -0.405467
 C          -6.286646      -15.819380       -0.758443
 C          -5.308745      -17.697725        0.626003
 C          -7.443634      -16.776735       -1.172163
 C          -6.508320      -18.548273        0.373389
 C          -7.734455      -17.780352       -0.013034
 H          -6.159693      -15.011062       -1.548202
 H          -6.576766      -15.248322        0.114595
 H          -4.401386      -18.322506        0.769284
 H          -5.323900      -17.233932        1.608510
 H          -7.198773      -17.252783       -2.122267
 H          -8.328403      -16.215584       -1.381699
 H          -6.750516      -19.139143        1.256565
 H          -6.327893      -19.257898       -0.433910
 H          -8.463057      -18.516459       -0.379537
 H          -8.159786      -17.227440        0.878454
