20
 generated by VMD
 C         -48.015209     -135.181656      -46.172291
 N         -47.608498     -134.902924      -47.191364
 H         -51.195145     -134.641449      -45.418335
 H         -48.371593     -135.447388      -45.189842
 C         -51.222103     -135.554001      -44.797432
 C         -51.846622     -136.829025      -45.468296
 C         -51.226944     -135.367218      -43.398327
 C         -51.313599     -138.029221      -44.711926
 C         -50.812027     -136.647461      -42.652004
 C         -51.464687     -137.862656      -43.163528
 H         -51.453903     -136.987564      -46.513786
 H         -52.882668     -136.897354      -45.543617
 H         -50.463772     -134.589981      -43.222839
 H         -52.137508     -134.996750      -42.995998
 H         -50.326485     -138.313339      -45.074303
 H         -52.028175     -138.905853      -44.953075
 H         -51.001839     -136.473969      -41.544384
 H         -49.719967     -136.737305      -42.822620
 H         -51.024300     -138.780029      -42.723938
 H         -52.550640     -138.049774      -42.869366
