20
 generated by VMD
 C         -27.853987      -87.320770      -27.144466
 N         -27.832180      -86.878456      -26.041801
 H         -31.213730      -88.556602      -25.372404
 H         -28.070475      -87.731323      -28.160622
 C         -32.254272      -88.631401      -25.787910
 C         -33.514889      -88.738617      -24.943678
 C         -32.374134      -88.473274      -27.265118
 C         -34.578697      -87.623238      -25.307634
 C         -33.652843      -87.713264      -27.640261
 C         -34.849285      -87.741058      -26.798138
 H         -33.361034      -88.693008      -23.852139
 H         -33.772934      -89.761642      -25.043829
 H         -31.431404      -88.054588      -27.723186
 H         -32.499596      -89.419395      -27.808403
 H         -34.119019      -86.680870      -25.153730
 H         -35.484856      -87.756248      -24.713133
 H         -33.975063      -87.950951      -28.678625
 H         -33.292927      -86.614159      -27.691271
 H         -35.450935      -86.892403      -27.208708
 H         -35.371040      -88.664719      -27.191677
