20
 generated by VMD
 C         -38.586342     -109.806221      -36.140144
 N         -37.772888     -109.018684      -35.922829
 H         -41.796085     -110.732758      -37.137501
 H         -39.348576     -110.503349      -36.283810
 C         -41.936359     -111.158989      -36.148308
 C         -41.886032     -112.636177      -36.278084
 C         -42.328838     -110.371666      -34.989300
 C         -41.509563     -113.203659      -34.920033
 C         -41.712692     -110.990677      -33.734375
 C         -41.962257     -112.577538      -33.590313
 H         -41.135784     -112.878937      -37.061905
 H         -42.832920     -112.987282      -36.665089
 H         -42.096054     -109.348106      -35.226593
 H         -43.425579     -110.393127      -35.022480
 H         -40.438084     -113.084129      -34.829140
 H         -41.797226     -114.295113      -34.919750
 H         -42.117149     -110.530670      -32.790722
 H         -40.571316     -110.928055      -33.660442
 H         -41.339211     -113.002388      -32.609161
 H         -42.969643     -112.872131      -33.349995
