20
 generated by VMD
 C         -39.778469     -105.436333      -37.267010
 N         -40.120365     -104.355293      -36.957169
 H         -39.595581     -108.599503      -35.450180
 H         -39.371475     -106.435852      -37.401192
 C         -39.598476     -108.530663      -34.342247
 C         -38.456390     -108.190186      -33.527252
 C         -40.465355     -109.712784      -33.851379
 C         -38.851746     -108.121323      -31.999224
 C         -40.902782     -109.520531      -32.437092
 C         -39.677116     -109.274498      -31.426899
 H         -37.985085     -107.173683      -33.871292
 H         -37.695778     -108.970856      -33.745621
 H         -41.360550     -109.928696      -34.438618
 H         -39.841354     -110.553612      -33.868641
 H         -39.267151     -107.204849      -31.775808
 H         -37.867428     -108.021324      -31.566008
 H         -41.560322     -110.456451      -32.213993
 H         -41.563725     -108.588203      -32.487331
 H         -40.139484     -109.021683      -30.362467
 H         -39.077747     -110.131371      -31.401119
