20
 generated by VMD
 C          -1.231847      -12.482742        1.331603
 N          -0.756653      -12.696726        0.332584
 H          -4.205100      -12.873540        1.007669
 H          -5.863431      -13.272978        0.723910
 C          -4.950578      -13.701963        1.173572
 C          -5.247240      -14.014596        2.626139
 C          -4.571982      -14.950518        0.345804
 C          -6.376164      -15.054949        2.663900
 C          -5.521961      -16.056541        0.503273
 C          -5.986554      -16.344831        1.908462
 H          -5.429993      -13.100828        3.130287
 H          -4.328089      -14.427544        3.042103
 H          -4.356219      -14.639816       -0.686438
 H          -3.625887      -15.300009        0.757998
 H          -7.318566      -14.597893        2.292767
 H          -6.614579      -15.248592        3.708260
 H          -5.065475      -16.950535        0.110296
 H          -6.423435      -15.852019       -0.113030
 H          -6.912021      -16.918001        1.661202
 H          -5.305205      -17.079411        2.417619
