20
 generated by VMD
 C         -78.850479     -204.161377      -70.398521
 N         -79.855003     -204.687637      -70.535454
 H         -76.591339     -203.395340      -68.564621
 H         -77.901360     -203.771530      -70.249001
 C         -75.774727     -203.249527      -69.192848
 C         -75.770996     -201.904709      -69.951279
 C         -74.467331     -203.986404      -69.015915
 C         -74.551537     -201.521500      -70.724442
 C         -73.410194     -202.916031      -68.935013
 C         -73.232086     -202.383316      -70.330147
 H         -75.893059     -201.146210      -69.172638
 H         -76.686424     -201.881439      -70.592514
 H         -74.476913     -204.643814      -68.137306
 H         -74.361313     -204.587616      -69.894211
 H         -74.372047     -200.488998      -70.580650
 H         -74.758331     -201.715378      -71.762283
 H         -72.365402     -203.340302      -68.745644
 H         -73.493332     -202.083115      -68.236244
 H         -72.221291     -201.831345      -70.417397
 H         -73.116318     -203.184967      -71.162781
