20
 generated by VMD
 C         -39.193581      -98.981010      -28.020197
 N         -38.646900      -99.925003      -27.686058
 H         -37.069702      -98.667023      -30.494663
 H         -39.929836      -98.145973      -28.196844
 C         -36.318169      -97.999168      -30.710135
 C         -35.757156      -98.212982      -32.069611
 C         -35.625713      -97.491638      -29.578857
 C         -34.429077      -97.611343      -32.362576
 C         -34.419411      -96.546463      -29.976145
 C         -33.611496      -97.288963      -31.018105
 H         -36.479897      -97.916550      -32.891121
 H         -35.575592      -99.222374      -32.279919
 H         -36.240952      -96.869156      -28.907932
 H         -35.315731      -98.361290      -29.101601
 H         -34.649559      -96.709259      -32.853882
 H         -33.684830      -97.997917      -33.101414
 H         -33.851250      -96.252769      -29.080513
 H         -34.824318      -95.682007      -30.390417
 H         -32.793793      -96.668129      -31.289362
 H         -33.146545      -98.203621      -30.443413
