20
 generated by VMD
 C         -11.530192      -33.551029       -8.947680
 N         -10.471003      -33.311417       -8.842299
 H         -12.347240      -34.982246       -7.544187
 H         -12.724864      -34.930599       -5.800939
 C         -12.634014      -35.623238       -6.646325
 C         -11.614244      -36.698517       -6.371643
 C         -14.008804      -36.170956       -7.021875
 C         -12.095426      -37.739651       -5.426074
 C         -14.550553      -37.128777       -5.940135
 C         -13.539089      -38.204105       -5.653054
 H         -10.633607      -36.321404       -6.130302
 H         -11.441076      -37.194286       -7.337948
 H         -14.790744      -35.428131       -7.296097
 H         -13.854396      -36.719875       -7.917983
 H         -12.042735      -37.363342       -4.388573
 H         -11.424469      -38.578476       -5.342121
 H         -15.566787      -37.604343       -6.257407
 H         -14.740190      -36.588974       -5.044397
 H         -13.904729      -38.818806       -4.815931
 H         -13.424678      -38.870644       -6.567582
