20
 generated by VMD
 C         -40.401546     -117.912346      -34.695160
 N         -39.432945     -117.361038      -35.040859
 H         -42.190231     -116.504898      -36.655609
 H         -41.118183     -118.566040      -34.347363
 C         -43.079708     -116.686852      -37.317413
 C         -42.817169     -116.889137      -38.817764
 C         -44.411552     -116.229836      -36.832722
 C         -44.017418     -117.497864      -39.522400
 C         -45.591301     -116.956047      -37.620094
 C         -45.410435     -116.930031      -39.131111
 H         -41.956974     -117.505486      -38.885880
 H         -42.636856     -115.933678      -39.203201
 H         -44.576557     -116.139908      -35.698868
 H         -44.674908     -115.188271      -37.124714
 H         -43.953358     -118.603065      -39.272499
 H         -43.764347     -117.339012      -40.649506
 H         -46.478153     -116.557541      -37.283051
 H         -45.737740     -117.988579      -37.525463
 H         -46.140297     -117.507637      -39.515411
 H         -45.318188     -115.878494      -39.428150
