20
 generated by VMD
 C         -30.352152      -94.126877      -25.691345
 N         -29.902822      -93.587700      -24.786028
 H         -33.878876      -93.015594      -27.147730
 H         -30.682281      -94.774048      -26.581520
 C         -34.352631      -92.231354      -27.716223
 C         -35.781704      -92.382797      -28.008249
 C         -33.438908      -91.734825      -28.798361
 C         -36.356209      -91.282814      -28.871099
 C         -34.150593      -90.647194      -29.549351
 C         -35.494671      -91.089531      -30.161669
 H         -36.160130      -92.220245      -26.935209
 H         -35.901215      -93.437500      -28.385485
 H         -32.500019      -91.379646      -28.320452
 H         -33.066139      -92.684006      -29.339619
 H         -36.478054      -90.307709      -28.339455
 H         -37.330151      -91.497040      -29.189945
 H         -33.625103      -90.170174      -30.431898
 H         -34.310131      -89.792107      -28.899298
 H         -35.745235      -90.374207      -30.969503
 H         -35.328941      -92.093102      -30.620422
