20
 generated by VMD
 C         -73.071953     -199.729599      -65.609726
 N         -73.928032     -200.453110      -65.276878
 H         -71.383247     -196.801224      -67.004387
 H         -72.344437     -199.183456      -66.166199
 C         -72.127396     -196.443268      -67.702240
 C         -73.266487     -195.555435      -67.161568
 C         -72.412895     -197.024948      -69.024323
 C         -74.268456     -195.163239      -68.153206
 C         -73.836533     -197.327179      -69.351379
 C         -74.874123     -196.306442      -68.926483
 H         -72.921448     -194.725723      -66.458687
 H         -73.845093     -196.155914      -66.513199
 H         -71.990417     -196.388123      -69.858658
 H         -71.840500     -198.009232      -69.218559
 H         -73.757767     -194.628540      -68.980423
 H         -75.025978     -194.522324      -67.718040
 H         -74.049919     -198.263474      -68.826942
 H         -74.022652     -197.481140      -70.446907
 H         -75.353203     -195.883896      -69.878723
 H         -75.698181     -196.703674      -68.371185
