20
 generated by VMD
 C         -67.391739     -191.681000      -66.283043
 N         -67.003380     -191.231888      -67.290367
 H         -70.190193     -190.021759      -66.193939
 H         -67.594658     -191.957031      -65.236420
 C         -71.079605     -190.096970      -65.522514
 C         -72.028809     -191.221756      -65.690399
 C         -71.105812     -189.111877      -64.450394
 C         -73.312798     -190.934006      -64.964943
 C         -72.251839     -189.156067      -63.463120
 C         -73.091507     -190.412643      -63.516178
 H         -71.605461     -192.325348      -65.564781
 H         -72.236366     -191.223740      -66.773682
 H         -70.084694     -189.283966      -63.905365
 H         -70.897110     -188.112137      -64.825348
 H         -73.810760     -191.939941      -64.963776
 H         -73.818787     -190.164383      -65.527557
 H         -72.820587     -188.336517      -63.832542
 H         -71.719055     -189.029236      -62.479538
 H         -72.618752     -191.330917      -62.970825
 H         -73.951729     -190.265579      -62.931801
