20
 generated by VMD
 C         -68.812172     -192.884735      -66.276810
 N         -68.177742     -193.364273      -67.117874
 H         -69.972260     -189.924622      -65.246101
 H         -69.189362     -192.422913      -65.373573
 C         -70.918777     -190.478043      -65.287590
 C         -71.717888     -190.833282      -66.494415
 C         -71.531509     -190.694992      -63.932732
 C         -72.633057     -191.999603      -66.152023
 C         -73.054710     -190.612473      -64.054451
 C         -73.608337     -191.623917      -65.058846
 H         -71.112839     -190.967194      -67.347847
 H         -72.350250     -189.933487      -66.792542
 H         -71.176392     -191.611298      -63.520966
 H         -71.112419     -189.890839      -63.233307
 H         -72.057243     -192.854431      -65.782600
 H         -73.101021     -192.304352      -67.118240
 H         -73.486923     -189.577042      -64.245895
 H         -73.362366     -190.835663      -63.060585
 H         -74.039894     -192.582626      -64.637863
 H         -74.397636     -191.121109      -65.422775
