20
 generated by VMD
 C         -50.752655     -129.975006      -44.953602
 N         -51.629143     -129.218369      -45.195660
 H         -48.839577     -129.564774      -42.975574
 H         -50.104683     -130.779541      -44.677284
 C         -48.082592     -129.827713      -42.155811
 C         -47.968571     -131.141602      -41.556599
 C         -47.502758     -128.602386      -41.637699
 C         -46.497814     -131.394608      -41.190102
 C         -46.054356     -128.845398      -41.151443
 C         -46.003784     -130.135773      -40.351700
 H         -48.206375     -131.824753      -42.390038
 H         -48.753468     -131.352219      -40.740097
 H         -47.373287     -127.821289      -42.454739
 H         -48.086536     -128.198013      -40.742352
 H         -45.931992     -131.548843      -42.168358
 H         -46.515820     -132.362915      -40.466408
 H         -45.676552     -128.057083      -40.577805
 H         -45.369595     -128.931564      -41.990883
 H         -45.074070     -130.444977      -39.923809
 H         -46.653934     -130.077332      -39.451267
