20
 generated by VMD
 C         -59.197727     -158.715118      -57.362240
 N         -58.669594     -158.186295      -58.240623
 H         -59.770092     -158.922882      -53.857727
 H         -59.727932     -159.204773      -56.540844
 C         -59.607483     -159.957886      -53.478069
 C         -58.392838     -160.140335      -52.670918
 C         -60.599571     -161.034851      -53.612072
 C         -58.932190     -160.607849      -51.280006
 C         -61.027630     -161.793976      -52.242317
 C         -59.737938     -161.884842      -51.291889
 H         -57.900581     -159.112671      -52.483932
 H         -57.784332     -160.802490      -53.373413
 H         -61.611568     -160.763412      -54.031055
 H         -60.190517     -161.659225      -54.362263
 H         -59.518047     -159.882278      -50.718822
 H         -58.203609     -160.800690      -50.572517
 H         -61.343155     -162.803925      -52.460278
 H         -61.814793     -161.195633      -51.831238
 H         -60.035820     -162.315109      -50.306366
 H         -59.060551     -162.749435      -51.654964
