20
 generated by VMD
 C         -68.826614     -184.631760      -65.991074
 N         -69.576309     -185.472534      -66.288986
 H         -69.734596     -183.000015      -63.421474
 H         -68.098930     -183.826736      -65.702797
 C         -69.114738     -183.761261      -63.032558
 C         -69.872787     -184.944092      -62.488338
 C         -67.918182     -183.084625      -62.264568
 C         -68.995247     -185.781113      -61.630936
 C         -67.243561     -184.074997      -61.233204
 C         -68.187958     -185.050537      -60.611691
 H         -70.236320     -185.604202      -63.351082
 H         -70.780365     -184.659073      -61.910011
 H         -67.187851     -182.781418      -62.959892
 H         -68.339218     -182.154892      -61.768875
 H         -68.280861     -186.407593      -62.172688
 H         -69.742706     -186.470154      -61.203144
 H         -66.648987     -183.422211      -60.598553
 H         -66.482567     -184.682068      -61.680576
 H         -67.812141     -185.770050      -59.827335
 H         -68.840576     -184.511734      -60.046936
