20
 generated by VMD
 C         -79.560913     -206.892944      -75.028114
 N         -79.917259     -207.609467      -74.229744
 H         -77.080124     -207.240219      -73.093651
 H         -79.200432     -206.059570      -75.678680
 C         -76.857491     -207.969833      -72.214851
 C         -75.506752     -207.792847      -71.478790
 C         -77.899101     -208.950836      -71.703125
 C         -76.024117     -207.478745      -69.996620
 C         -78.084206     -208.822601      -70.234901
 C         -76.805435     -208.731613      -69.402817
 H         -74.884605     -206.958786      -71.917267
 H         -74.910973     -208.709656      -71.635437
 H         -78.951736     -208.735245      -72.061699
 H         -77.649567     -209.993347      -71.910652
 H         -76.483665     -206.503204      -69.961220
 H         -75.132034     -207.310272      -69.396095
 H         -78.709839     -209.678223      -69.861725
 H         -78.639221     -207.952499      -69.975639
 H         -76.980598     -208.512558      -68.332939
 H         -76.343735     -209.726212      -69.533699
