20
 generated by VMD
 C         -13.878600      -43.551182       -6.689307
 N         -13.282041      -43.758553       -5.774360
 H         -14.984528      -45.046787       -9.002615
 H         -14.360334      -43.904423      -10.073054
 C         -15.280457      -44.480804       -9.894588
 C         -16.407619      -43.483494       -9.573328
 C         -15.534379      -45.447521      -11.077433
 C         -16.805490      -42.855621      -10.848427
 C         -16.000128      -44.745567      -12.341516
 C         -17.177538      -43.900028      -11.893106
 H         -16.130486      -42.740879       -8.799157
 H         -17.289120      -44.017643       -9.132027
 H         -14.642437      -46.001236      -11.314169
 H         -16.176138      -46.315922      -10.869616
 H         -16.006620      -42.215576      -11.241831
 H         -17.685375      -42.203323      -10.674846
 H         -16.130322      -45.532803      -13.121975
 H         -15.225434      -44.045792      -12.731046
 H         -17.567055      -43.333252      -12.681865
 H         -17.950785      -44.531235      -11.502372
