20
 generated by VMD
 C         -48.441746     -135.783234      -46.252071
 N         -47.716179     -136.078064      -45.437675
 H         -51.725117     -135.037308      -46.050537
 H         -49.195370     -135.507599      -46.938362
 C         -51.792282     -135.800095      -45.252457
 C         -52.500362     -137.179810      -45.570587
 C         -51.201084     -135.703568      -43.890442
 C         -51.614395     -138.305374      -45.168518
 C         -50.404140     -136.864380      -43.443878
 C         -51.186985     -138.168304      -43.746094
 H         -52.607449     -137.207047      -46.717072
 H         -53.432060     -137.334320      -45.100128
 H         -50.629810     -134.760696      -43.961422
 H         -52.097496     -135.549881      -43.226315
 H         -50.776028     -138.483627      -45.831181
 H         -52.100845     -139.311310      -45.181156
 H         -50.037292     -136.665939      -42.394943
 H         -49.510452     -136.970337      -43.984371
 H         -50.583885     -139.146866      -43.427269
 H         -52.175991     -138.287231      -43.123924
