20
 generated by VMD
 C         -19.677265      -57.670055      -16.950882
 N         -19.241697      -58.185524      -17.884308
 H         -22.550869      -59.643475      -17.030487
 H         -20.212986      -57.044502      -16.179081
 C         -22.619625      -60.519634      -16.510338
 C         -23.879845      -61.404171      -16.594061
 C         -21.697430      -60.829472      -15.377482
 C         -23.838352      -62.813511      -16.203756
 C         -21.552141      -62.291374      -15.055029
 C         -22.868380      -63.132622      -15.067589
 H         -24.279957      -61.328770      -17.564840
 H         -24.482351      -61.064838      -15.795004
 H         -20.803457      -60.179230      -15.487152
 H         -22.109316      -60.322243      -14.497062
 H         -23.624300      -63.397636      -17.084179
 H         -24.833347      -62.998810      -15.749424
 H         -21.066397      -62.464157      -14.040312
 H         -20.759474      -62.747471      -15.656796
 H         -22.575382      -64.210129      -15.145605
 H         -23.296732      -63.048363      -14.087132
