20
 generated by VMD
 C         -28.242950      -82.384079      -26.734915
 N         -27.408520      -83.112350      -27.026825
 H         -31.288364      -84.142738      -26.503839
 H         -28.981218      -81.660446      -26.339560
 C         -31.610907      -84.817009      -25.720543
 C         -31.048988      -84.644806      -24.365946
 C         -32.124142      -86.101280      -26.213709
 C         -32.123600      -85.134415      -23.348661
 C         -33.089077      -86.671967      -25.155882
 C         -32.503857      -86.665558      -23.751156
 H         -30.978991      -83.601196      -24.193754
 H         -30.092276      -85.087685      -24.431578
 H         -32.628307      -85.905602      -27.148489
 H         -31.399998      -86.886047      -26.538635
 H         -33.032215      -84.516747      -23.515923
 H         -31.850685      -85.085915      -22.348679
 H         -33.415478      -87.722473      -25.308296
 H         -34.054974      -86.042450      -25.186655
 H         -33.016449      -87.194336      -22.921839
 H         -31.402180      -87.111938      -23.828072
