20
 generated by VMD
 C         -22.988209      -55.177738      -15.066744
 N         -22.765661      -55.046425      -16.150028
 H         -19.555044      -54.341309      -15.469507
 H         -23.622683      -55.570465      -14.150426
 C         -19.491407      -55.168869      -14.800980
 C         -18.810614      -55.086239      -13.455933
 C         -19.539612      -56.559875      -15.403680
 C         -19.428696      -56.177273      -12.591948
 C         -19.240608      -57.830456      -14.557277
 C         -18.969715      -57.536907      -13.089442
 H         -19.005322      -54.081638      -13.080420
 H         -17.704451      -55.351551      -13.553238
 H         -20.452288      -56.765038      -15.848442
 H         -18.634579      -56.425915      -16.074928
 H         -20.518391      -56.067940      -12.581872
 H         -19.198816      -56.148079      -11.495191
 H         -18.401756      -58.396038      -15.010545
 H         -20.052418      -58.567612      -14.623940
 H         -19.449127      -58.333641      -12.549948
 H         -17.883823      -57.752895      -12.966096
