20
 generated by VMD
 C         -12.881207      -30.000404       -7.549404
 N         -13.665141      -29.418430       -8.089754
 H         -11.332554      -30.150017       -4.835235
 H         -10.071883      -30.387812       -3.624002
 C         -10.727294      -30.986563       -4.387111
 C          -9.748268      -31.498711       -5.416951
 C         -11.594246      -32.098053       -3.786900
 C          -8.794905      -32.564362       -4.905848
 C         -10.573227      -33.175140       -3.229810
 C          -9.607666      -33.645020       -4.230116
 H          -9.125200      -30.719086       -5.830440
 H         -10.393330      -31.931913       -6.202185
 H         -12.376574      -31.864197       -3.051592
 H         -12.142495      -32.563629       -4.652945
 H          -8.112606      -32.066002       -4.165997
 H          -8.111572      -32.846844       -5.735064
 H         -11.160577      -34.056007       -2.860913
 H         -10.110800      -32.707256       -2.407817
 H          -8.883454      -34.453621       -3.889678
 H         -10.159685      -34.187500       -5.039098
