20
 generated by VMD
 C         -68.690498     -193.729492      -64.584686
 N         -68.450714     -194.360001      -65.528175
 H         -70.953003     -193.531006      -67.647026
 H         -69.221291     -193.080780      -63.826366
 C         -71.811890     -193.022903      -67.231842
 C         -71.604729     -191.823898      -66.380478
 C         -73.153465     -193.703079      -67.238571
 C         -72.857224     -191.123779      -65.884438
 C         -74.136597     -193.273651      -66.197922
 C         -73.771057     -192.145584      -65.299782
 H         -70.955544     -191.164917      -66.957886
 H         -70.944817     -192.080841      -65.415154
 H         -73.548729     -193.611206      -68.230972
 H         -73.003006     -194.834488      -67.278740
 H         -73.398285     -190.673431      -66.797600
 H         -72.720016     -190.191467      -65.285980
 H         -74.343422     -194.154938      -65.555916
 H         -75.127426     -193.095978      -66.560745
 H         -74.574661     -191.673096      -64.892433
 H         -73.314369     -192.620865      -64.323586
