20
 generated by VMD
 C         -69.724213     -184.967010      -66.663277
 N         -69.028320     -184.630493      -67.499184
 H         -69.893105     -183.265564      -63.126526
 H         -70.481194     -185.238449      -65.884544
 C         -69.296684     -183.349762      -62.226875
 C         -69.607086     -184.434860      -61.225163
 C         -68.129135     -182.437225      -61.878944
 C         -68.253532     -185.129852      -60.949417
 C         -66.869705     -183.174942      -61.225079
 C         -67.193558     -184.271317      -60.264626
 H         -70.311630     -185.258789      -61.582638
 H         -69.977608     -183.929947      -60.331829
 H         -67.777893     -181.843979      -62.644035
 H         -68.615425     -181.735840      -61.176590
 H         -67.825081     -185.689453      -61.840519
 H         -68.391891     -185.852554      -60.109268
 H         -66.318718     -182.374069      -60.657589
 H         -66.166679     -183.375137      -62.047691
 H         -66.415695     -184.775223      -59.801113
 H         -67.778839     -183.861160      -59.458633
