20
 generated by VMD
 C         -58.878292     -168.482269      -55.019363
 N         -57.774258     -168.745468      -54.918621
 H         -61.964558     -168.658066      -55.596451
 H         -59.899967     -168.156204      -54.968048
 C         -62.403000     -167.892334      -56.257080
 C         -62.706013     -168.028076      -57.752724
 C         -62.841976     -166.613556      -55.667160
 C         -64.107155     -167.552780      -58.108932
 C         -64.276268     -166.178253      -56.049915
 C         -64.491211     -166.214355      -57.507080
 H         -62.466808     -169.065872      -58.289650
 H         -62.103416     -167.355942      -58.271179
 H         -62.767754     -166.544022      -54.561176
 H         -62.253063     -165.973526      -56.235210
 H         -64.841904     -168.346466      -57.793434
 H         -64.225502     -167.501495      -59.248997
 H         -64.587669     -165.158478      -55.631603
 H         -64.943008     -166.889084      -55.343994
 H         -65.542755     -165.997147      -57.736153
 H         -63.882290     -165.453857      -58.082680
