20
 generated by VMD
 C         -56.133736     -149.815399      -47.677757
 N         -57.173775     -150.254272      -47.340893
 H         -53.421520     -148.109222      -47.405071
 H         -55.221687     -149.334320      -48.074490
 C         -53.900295     -147.868378      -48.318771
 C         -53.154526     -148.500870      -49.595737
 C         -54.557800     -146.447281      -48.492420
 C         -54.227978     -148.532761      -50.748837
 C         -55.566273     -146.674164      -49.705067
 C         -54.794090     -147.097366      -50.945061
 H         -52.952511     -149.539948      -49.572216
 H         -52.238667     -147.852493      -49.813450
 H         -54.965267     -146.239761      -47.587090
 H         -53.781025     -145.795410      -48.874680
 H         -55.065285     -149.160629      -50.427464
 H         -53.931103     -148.925552      -51.714912
 H         -56.025162     -145.782883      -50.102665
 H         -56.333565     -147.523636      -49.429058
 H         -55.377476     -146.966339      -51.824512
 H         -53.977306     -146.366760      -51.077145
