20
 generated by VMD
 C         -12.920986      -28.787569       -6.079219
 N         -13.094386      -28.736654       -7.177699
 H         -12.081689      -31.146465       -5.141375
 H         -11.068442      -29.791185       -5.088103
 C         -11.092698      -30.891788       -4.776065
 C         -10.068764      -31.688437       -5.601242
 C         -10.910563      -31.054184       -3.225217
 C          -8.689466      -31.458263       -5.162182
 C          -9.402754      -31.108988       -2.793489
 C          -8.552398      -31.938181       -3.728059
 H         -10.155071      -31.336565       -6.721953
 H         -10.402740      -32.726952       -5.580881
 H         -11.358363      -30.209707       -2.678497
 H         -11.495483      -31.973095       -2.879243
 H          -8.409351      -30.384808       -5.282022
 H          -7.910154      -32.036472       -5.746110
 H          -9.322922      -31.508186       -1.771371
 H          -8.980371      -30.093048       -2.788688
 H          -7.522035      -31.956507       -3.465646
 H          -8.745743      -33.025661       -3.631517
