20
 generated by VMD
 C         -22.005810      -55.358929      -17.491562
 N         -21.478851      -55.790493      -18.499422
 H         -21.305162      -56.774334      -14.033697
 H         -22.437281      -54.798264      -16.771875
 C         -21.116484      -57.787674      -14.069342
 C         -21.255728      -58.785320      -12.921067
 C         -20.877392      -58.325737      -15.535624
 C         -20.942282      -60.235107      -13.271262
 C         -20.308779      -59.663483      -15.636639
 C         -19.769152      -60.107155      -14.294804
 H         -22.333172      -58.802769      -12.594758
 H         -20.636778      -58.504059      -12.057593
 H         -21.776728      -58.211864      -16.072832
 H         -20.200314      -57.677032      -16.119190
 H         -21.790779      -60.864052      -13.538505
 H         -20.571976      -60.694721      -12.379838
 H         -19.390753      -59.661674      -16.265665
 H         -20.951357      -60.423256      -16.134995
 H         -19.408978      -61.188259      -14.465517
 H         -18.878317      -59.549530      -13.894136
