20
 generated by VMD
 C         -38.490490     -108.036087      -36.813747
 N         -38.119423     -108.722054      -37.666622
 H         -41.277828     -108.920570      -35.581928
 H         -38.713825     -107.474480      -35.944843
 C         -41.235523     -109.710167      -34.932632
 C         -40.484180     -110.992188      -35.237991
 C         -42.486256     -109.847923      -34.075039
 C         -40.204132     -111.826393      -34.038120
 C         -42.129532     -110.661392      -32.865295
 C         -41.520714     -112.035393      -33.158691
 H         -39.652157     -110.699265      -35.846912
 H         -41.175453     -111.434387      -35.921139
 H         -42.940575     -108.862747      -33.908924
 H         -43.123821     -110.531685      -34.744751
 H         -39.459332     -111.290451      -33.454384
 H         -39.901897     -112.802773      -34.225750
 H         -43.128185     -110.774536      -32.447105
 H         -41.442341     -110.131447      -32.071873
 H         -41.288639     -112.586197      -32.275799
 H         -42.131241     -112.725006      -33.704979
