20
 generated by VMD
 C         -40.660557     -100.256378      -30.249746
 N         -41.084686     -100.409035      -29.206347
 H         -37.355629     -100.461754      -30.319586
 H         -40.250111      -99.817154      -31.215405
 C         -36.554817     -100.084282      -30.848732
 C         -36.157024      -99.917168      -32.323078
 C         -35.283962     -100.043152      -29.832935
 C         -35.108715      -98.810226      -32.522396
 C         -34.307076      -98.915276      -29.935097
 C         -33.922462      -98.648827      -31.472172
 H         -37.026573      -99.691833      -32.996937
 H         -35.768364     -100.885941      -32.557682
 H         -35.752525     -100.059410      -28.813065
 H         -34.765076     -100.984634      -29.912910
 H         -35.657379      -97.874245      -32.495049
 H         -34.620960      -98.949959      -33.503304
 H         -33.383224      -99.164795      -29.488787
 H         -34.545387      -98.005890      -29.398266
 H         -33.397121      -97.608009      -31.555420
 H         -33.078552      -99.217148      -31.868359
