20
 generated by VMD
 C         -66.068184     -177.866302      -56.873837
 N         -66.972916     -177.164307      -57.152962
 H         -64.042206     -175.466766      -58.362377
 H         -65.244102     -178.513000      -56.730312
 C         -64.417236     -174.843338      -59.247047
 C         -65.603226     -173.959900      -59.176548
 C         -63.419312     -174.576843      -60.322529
 C         -65.210396     -172.507126      -59.072308
 C         -63.080235     -172.960907      -60.409538
 C         -64.360107     -172.031448      -60.205231
 H         -66.181763     -174.272934      -58.365742
 H         -66.292740     -174.062302      -60.091991
 H         -62.472649     -175.183823      -60.182781
 H         -63.789520     -174.820267      -61.346230
 H         -64.676765     -172.350037      -58.161030
 H         -66.144165     -171.985016      -59.025265
 H         -62.718769     -172.564957      -61.412437
 H         -62.248314     -172.807678      -59.765255
 H         -64.148193     -170.983826      -59.806149
 H         -64.932816     -171.915619      -61.103329
