20
 generated by VMD
 C          -9.930245      -24.649067        0.436126
 N         -10.413539      -25.124418       -0.450394
 H          -6.502495      -24.569757       -0.823221
 H          -8.153909      -24.187853       -1.274461
 C          -7.137661      -24.304403       -1.633502
 C          -7.115485      -25.441895       -2.667359
 C          -6.813845      -22.938259       -2.192634
 C          -8.028546      -25.079590       -3.866990
 C          -7.694436      -22.573904       -3.415139
 C          -7.771692      -23.682642       -4.457093
 H          -7.502307      -26.345211       -2.263611
 H          -6.036212      -25.584965       -2.917600
 H          -6.904688      -22.175842       -1.377151
 H          -5.824912      -22.865271       -2.611919
 H          -9.017666      -25.009014       -3.426493
 H          -7.994457      -25.818939       -4.636033
 H          -7.367762      -21.587698       -3.777745
 H          -8.671741      -22.392576       -2.985107
 H          -8.462749      -23.489643       -5.343053
 H          -6.785947      -23.720797       -4.962486
