20
 generated by VMD
 C         -60.155373     -156.201553      -54.752800
 N         -60.336998     -155.289383      -55.375408
 H         -59.848618     -157.333206      -51.592354
 H         -59.954586     -157.149582      -54.335899
 C         -58.869587     -157.293503      -52.054379
 C         -58.216049     -156.011810      -52.329708
 C         -57.975517     -158.530823      -52.008068
 C         -57.208153     -155.823318      -51.170345
 C         -56.910709     -158.374161      -50.837658
 C         -56.209576     -157.019897      -50.992985
 H         -58.942917     -155.231461      -52.232796
 H         -57.683865     -155.974472      -53.287449
 H         -58.657944     -159.361938      -51.959286
 H         -57.480858     -158.618195      -53.053413
 H         -57.829510     -155.618805      -50.235409
 H         -56.630096     -155.027664      -51.564804
 H         -56.271820     -159.236282      -50.820866
 H         -57.605156     -158.301254      -49.885048
 H         -55.570087     -156.787262      -50.056435
 H         -55.617599     -157.110016      -51.860176
