20
 generated by VMD
 C         -40.220947     -104.791885      -36.608318
 N         -39.441666     -104.082077      -37.122547
 H         -40.191242     -108.362511      -35.307705
 H         -40.836720     -105.321777      -35.889587
 C         -39.919735     -108.492958      -34.263313
 C         -38.748039     -107.756279      -33.695858
 C         -40.023205     -109.864815      -33.424431
 C         -38.904808     -107.388397      -32.247677
 C         -40.424431     -109.441849      -32.045883
 C         -39.208275     -108.713242      -31.410666
 H         -38.594128     -106.788261      -34.314823
 H         -37.719582     -108.290741      -33.916168
 H         -40.861267     -110.409225      -33.776089
 H         -39.071068     -110.381393      -33.587025
 H         -39.647919     -106.606483      -32.082428
 H         -37.923096     -107.061737      -32.024792
 H         -40.538742     -110.399109      -31.516485
 H         -41.334942     -108.805328      -31.851213
 H         -39.298454     -108.472481      -30.425632
 H         -38.290066     -109.333252      -31.570353
