20
 generated by VMD
 C         -40.331879     -100.238464      -30.057922
 N         -41.313648     -100.514503      -30.578535
 H         -37.315411     -101.501938      -30.276838
 H         -39.493095      -99.741165      -29.618570
 C         -36.528889     -100.881226      -30.850552
 C         -36.409508     -100.463554      -32.407833
 C         -35.241665     -100.834404      -29.996065
 C         -35.561333      -99.252464      -32.411747
 C         -34.640942      -99.374985      -29.982174
 C         -34.309750      -99.059654      -31.502739
 H         -37.420757     -100.271019      -32.867847
 H         -35.992702     -101.294655      -32.923031
 H         -35.567284     -101.133102      -28.946138
 H         -34.560844     -101.578110      -30.288416
 H         -36.241413      -98.441422      -32.120106
 H         -35.286629      -98.903404      -33.463581
 H         -33.690254      -99.223892      -29.459396
 H         -35.281876      -98.574257      -29.602243
 H         -33.890507      -98.064583      -31.521133
 H         -33.616089      -99.815636      -31.859947
