20
 generated by VMD
 C          -1.716860       -8.628711       -0.107893
 N          -2.336574       -7.818738        0.377318
 H          -3.193173       -9.440565        2.415682
 H          -1.861624      -10.556086        2.653759
 C          -2.962261      -10.385486        2.828258
 C          -3.849188      -11.373333        2.179717
 C          -3.118114      -10.400126        4.351228
 C          -3.474980      -12.762830        2.690377
 C          -2.814708      -11.739921        4.921629
 C          -3.578620      -12.844975        4.246080
 H          -3.694534      -11.327052        1.079858
 H          -4.921501      -11.232496        2.414685
 H          -2.443184       -9.642709        4.861349
 H          -4.060852       -9.992599        4.721175
 H          -2.422222      -13.086022        2.418784
 H          -4.193025      -13.540391        2.311888
 H          -3.038723      -11.682436        5.987357
 H          -1.756830      -11.851345        4.940094
 H          -3.248502      -13.839477        4.587720
 H          -4.627929      -12.813473        4.560724
