20
 generated by VMD
 C         -67.623047     -191.743652      -67.211426
 N         -66.975281     -192.565796      -66.716858
 H         -70.559998     -189.240219      -66.220459
 H         -68.256416     -191.102066      -67.860786
 C         -71.207191     -189.752457      -65.511398
 C         -71.687019     -191.199265      -65.825333
 C         -71.395195     -189.251022      -64.088287
 C         -73.169815     -191.178864      -65.345039
 C         -72.768906     -189.588669      -63.485329
 C         -73.254341     -191.014679      -63.876129
 H         -71.124565     -191.853973      -65.135872
 H         -71.663383     -191.409180      -66.903587
 H         -70.646698     -189.702972      -63.468437
 H         -71.329475     -188.191422      -64.112801
 H         -73.602013     -192.187576      -65.565224
 H         -73.884956     -190.487778      -65.873077
 H         -73.541824     -188.924332      -63.935009
 H         -72.820992     -189.278076      -62.383564
 H         -72.585541     -191.777191      -63.363468
 H         -74.222496     -191.220352      -63.585072
