20
 generated by VMD
 C         -19.639429      -57.764679      -17.009859
 N         -19.231459      -58.320015      -17.964674
 H         -21.989437      -60.147617      -17.220310
 H         -19.906754      -57.103821      -16.034361
 C         -22.659893      -60.645664      -16.421885
 C         -23.874107      -61.408154      -16.723549
 C         -22.029839      -60.926289      -15.107678
 C         -23.721388      -62.831825      -16.313648
 C         -21.554453      -62.382885      -15.193723
 C         -22.904661      -63.134537      -15.060583
 H         -24.256594      -61.278454      -17.723204
 H         -24.612610      -60.976692      -16.157976
 H         -21.212164      -60.266235      -14.919235
 H         -22.710213      -60.832256      -14.243863
 H         -23.250000      -63.413197      -17.156441
 H         -24.700930      -63.330498      -16.257116
 H         -20.929165      -62.568607      -14.301055
 H         -21.140226      -62.624966      -16.189413
 H         -22.649029      -64.244606      -15.126011
 H         -23.530506      -62.934143      -14.151608
