20
 generated by VMD
 C         -64.752777     -175.401474      -55.853176
 N         -64.039299     -175.956085      -56.545036
 H         -65.429504     -174.199493      -58.762093
 H         -65.463799     -174.860672      -55.254879
 C         -64.956047     -173.310715      -59.029907
 C         -65.313507     -172.148590      -58.264687
 C         -64.018700     -173.313675      -60.062538
 C         -64.424301     -170.901276      -58.340759
 C         -63.121319     -172.125381      -60.130856
 C         -63.914700     -170.781631      -59.769989
 H         -65.395805     -172.584442      -57.195095
 H         -66.307770     -171.958450      -58.510738
 H         -63.368050     -174.203049      -59.858437
 H         -64.507980     -173.643051      -61.028988
 H         -63.529667     -170.934570      -57.612156
 H         -65.047005     -169.981064      -58.083813
 H         -62.684975     -172.069229      -61.125748
 H         -62.208900     -172.343018      -59.508320
 H         -63.269325     -169.943253      -59.847252
 H         -64.700218     -170.579254      -60.512615
