20
 generated by VMD
 C         -47.984543     -124.986656      -38.622166
 N         -47.139133     -125.754883      -38.730389
 H         -45.407181     -123.056084      -37.768112
 H         -48.859993     -124.457741      -38.792530
 C         -45.102322     -122.881828      -38.818069
 C         -44.084240     -123.847366      -39.401775
 C         -45.662769     -121.826195      -39.650414
 C         -44.509754     -124.252922      -40.879581
 C         -46.075779     -122.372025      -41.032764
 C         -44.741379     -123.006004      -41.661491
 H         -44.011745     -124.765633      -38.718651
 H         -43.055347     -123.312286      -39.300106
 H         -46.572422     -121.453415      -39.112442
 H         -45.042282     -120.902695      -39.847286
 H         -45.441578     -124.831894      -40.764278
 H         -43.567009     -124.718758      -41.289188
 H         -46.347683     -121.569229      -41.667015
 H         -46.800468     -123.098526      -40.784828
 H         -45.038071     -123.382515      -42.707104
 H         -43.840317     -122.351395      -41.784008
