20
 generated by VMD
 C         -58.115429     -167.631592      -55.336578
 N         -57.081997     -168.006302      -55.012745
 H         -61.738548     -166.886871      -54.985504
 H         -59.076637     -167.220154      -55.535595
 C         -61.927265     -166.281265      -55.857555
 C         -62.248188     -166.968750      -57.170025
 C         -62.770992     -165.026733      -55.692703
 C         -63.747593     -167.417892      -57.125751
 C         -64.239326     -165.332489      -55.646736
 C         -64.694412     -166.162125      -56.890194
 H         -61.655224     -167.754761      -57.329708
 H         -62.152119     -166.452316      -58.201096
 H         -62.486015     -164.510757      -54.810646
 H         -62.513966     -164.402039      -56.575104
 H         -63.774044     -168.061172      -56.243999
 H         -64.086838     -167.962219      -58.027649
 H         -64.839844     -164.478333      -55.555813
 H         -64.515907     -165.924652      -54.872158
 H         -65.799431     -166.526443      -56.879025
 H         -64.689201     -165.424072      -57.822208
