20
 generated by VMD
 C         -40.637077     -104.133087      -36.775124
 N         -39.893459     -104.995697      -36.490311
 H         -40.308968     -106.795967      -34.456795
 H         -41.314903     -103.303360      -36.777039
 C         -39.634457     -107.362068      -33.813107
 C         -38.467010     -106.598808      -33.355087
 C         -40.032452     -108.753220      -33.461765
 C         -38.363735     -106.908401      -31.785776
 C         -39.696915     -109.113373      -31.991529
 C         -38.509586     -108.436562      -31.510996
 H         -38.741322     -105.629204      -33.594734
 H         -37.521461     -106.937996      -33.798153
 H         -41.113956     -108.751045      -33.635918
 H         -39.573624     -109.528152      -34.171761
 H         -39.081459     -106.302032      -31.234278
 H         -37.435375     -106.572617      -31.347692
 H         -39.548016     -110.184334      -31.937366
 H         -40.445335     -108.807495      -31.307053
 H         -38.335670     -108.597656      -30.518753
 H         -37.555901     -108.763168      -32.062691
