20
 generated by VMD
 C         -11.614439      -41.487755       -6.806845
 N         -11.429524      -42.411282       -6.200244
 H         -14.779319      -42.443260       -8.364396
 H         -15.216146      -41.433907       -9.687787
 C         -15.329181      -42.406021       -9.215850
 C         -16.778408      -42.637848       -8.851656
 C         -14.755748      -43.437641      -10.223819
 C         -17.629200      -42.507458      -10.136608
 C         -15.545320      -43.440662      -11.489557
 C         -17.057167      -43.369007      -11.302928
 H         -17.149630      -41.940166       -8.092521
 H         -16.891294      -43.594234       -8.410895
 H         -13.722356      -43.188683      -10.471691
 H         -14.904486      -44.405308       -9.835453
 H         -17.611834      -41.443295      -10.422196
 H         -18.660431      -42.855812       -9.870789
 H         -15.273491      -44.388401      -12.033863
 H         -15.235368      -42.605064      -12.110228
 H         -17.638784      -43.069237      -12.206421
 H         -17.349615      -44.404793      -11.137366
