20
 generated by VMD
 C         -69.390625     -180.040634      -61.963768
 N         -69.504570     -181.111832      -62.385960
 H         -66.706535     -180.378967      -59.180370
 H         -69.362999     -178.968109      -61.659637
 C         -66.172089     -179.563889      -59.647629
 C         -65.315689     -179.798401      -60.823685
 C         -66.119095     -178.309418      -58.891560
 C         -65.434509     -178.511230      -61.789215
 C         -65.845085     -177.090897      -59.743706
 C         -64.978889     -177.314209      -60.981770
 H         -65.628166     -180.682663      -61.337578
 H         -64.349724     -179.972076      -60.435055
 H         -66.981674     -178.068588      -58.305405
 H         -65.291901     -178.438568      -58.160648
 H         -66.408028     -178.480560      -62.122314
 H         -64.787636     -178.713470      -62.590733
 H         -65.628502     -176.130020      -59.201992
 H         -66.861877     -176.851349      -60.117081
 H         -64.829315     -176.206223      -61.448883
 H         -63.970516     -177.520325      -60.543995
