20
 generated by VMD
 C         -30.375252      -74.157295      -20.782400
 N         -30.171648      -75.233330      -20.448156
 H         -27.484488      -74.581970      -19.448338
 H         -30.505926      -73.272934      -21.447420
 C         -26.601690      -74.439407      -20.060755
 C         -26.175016      -75.613907      -21.037127
 C         -25.984890      -73.147781      -20.364401
 C         -26.000450      -75.194122      -22.536785
 C         -25.864611      -72.819695      -21.899839
 C         -25.161854      -73.865105      -22.666609
 H         -26.980255      -76.371078      -20.867960
 H         -25.303675      -76.089027      -20.644081
 H         -26.632452      -72.327263      -20.023266
 H         -24.925142      -72.895470      -19.914801
 H         -27.001093      -75.114166      -22.961964
 H         -25.465231      -75.961479      -23.111320
 H         -25.071449      -72.033066      -21.932322
 H         -26.756153      -72.666954      -22.471205
 H         -24.993532      -73.476395      -23.647253
 H         -24.192209      -74.134087      -22.259363
