20
 generated by VMD
 C         -59.514198     -157.815659      -56.543106
 N         -58.974197     -158.691895      -56.962830
 H         -60.590267     -157.767776      -52.994244
 H         -60.020035     -156.919830      -56.215038
 C         -59.976055     -158.623184      -52.683121
 C         -58.488171     -158.404785      -52.366600
 C         -60.482250     -159.993958      -53.127884
 C         -57.902721     -159.569717      -51.523235
 C         -59.818661     -160.942993      -52.107716
 C         -58.295094     -160.861740      -51.935238
 H         -58.385757     -157.543121      -51.792355
 H         -57.931156     -158.282135      -53.300117
 H         -61.506599     -160.210693      -52.960487
 H         -60.156288     -160.194870      -54.210964
 H         -58.312908     -159.492050      -50.460045
 H         -56.892258     -159.407730      -51.513969
 H         -60.115742     -161.927856      -52.485798
 H         -60.119637     -160.858032      -51.040817
 H         -57.986622     -161.591202      -51.137283
 H         -57.993126     -161.071564      -52.859070
