20
 generated by VMD
 C         -59.897091     -156.919968      -56.507820
 N         -60.956474     -156.493652      -56.516834
 H         -59.778393     -157.330734      -53.188599
 H         -58.872684     -157.298615      -56.626621
 C         -58.921730     -157.880478      -52.682243
 C         -57.740814     -157.047302      -52.315704
 C         -58.982189     -159.396484      -52.474529
 C         -57.360363     -157.475845      -50.906967
 C         -58.448017     -159.734482      -51.067535
 C         -57.124771     -158.995880      -50.701763
 H         -57.756279     -155.992554      -52.282799
 H         -56.875160     -157.349396      -53.030262
 H         -60.094372     -159.708588      -52.483803
 H         -58.486259     -159.792801      -53.393497
 H         -58.328594     -157.069168      -50.296383
 H         -56.578854     -156.804855      -50.464722
 H         -58.231598     -160.777557      -50.981903
 H         -59.176617     -159.590042      -50.290810
 H         -56.865944     -159.170227      -49.557655
 H         -56.260525     -159.392883      -51.199692
