20
 generated by VMD
 C         -28.134253      -72.670486      -18.134605
 N         -28.399752      -73.596458      -17.478443
 H         -24.636526      -71.252663      -18.800459
 H         -27.515930      -71.810455      -18.671673
 C         -25.172026      -71.520332      -19.760925
 C         -24.633343      -72.716148      -20.483358
 C         -25.869482      -70.480316      -20.511641
 C         -24.948818      -72.795753      -21.989702
 C         -26.494614      -70.791504      -21.734497
 C         -25.619881      -71.490654      -22.655481
 H         -24.904852      -73.564316      -19.898569
 H         -23.479750      -72.584328      -20.438982
 H         -26.655056      -70.060028      -19.839888
 H         -25.094288      -69.759140      -20.646471
 H         -25.816956      -73.480461      -22.036009
 H         -24.140106      -73.074486      -22.682045
 H         -26.778778      -69.832588      -22.090811
 H         -27.443233      -71.289932      -21.667135
 H         -26.229990      -71.830299      -23.558489
 H         -24.913488      -70.686951      -22.965084
