20
 generated by VMD
 C         -58.502987     -151.474426      -49.593555
 N         -59.014729     -152.176300      -48.753475
 H         -55.575058     -149.686798      -47.784195
 H         -58.071537     -150.750168      -50.309105
 C         -55.093170     -149.531967      -48.726311
 C         -54.274921     -150.498276      -49.390800
 C         -54.822655     -148.114151      -49.016811
 C         -54.185249     -150.150787      -50.868229
 C         -54.845135     -147.809265      -50.465530
 C         -53.853497     -148.670120      -51.116436
 H         -54.651634     -151.494629      -49.225941
 H         -53.307213     -150.658813      -48.843887
 H         -55.754242     -147.625229      -48.478374
 H         -53.918819     -147.641281      -48.534538
 H         -55.145554     -150.150864      -51.409359
 H         -53.553467     -150.855728      -51.417969
 H         -54.539879     -146.761642      -50.387939
 H         -55.918839     -147.944016      -50.920078
 H         -53.989368     -148.438873      -52.250004
 H         -52.825264     -148.447357      -50.817543
