20
 generated by VMD
 C         -21.569286      -66.590820      -16.773664
 N         -20.896360      -66.905334      -15.874209
 H         -24.361225      -64.307121      -18.304737
 H         -22.297232      -66.101303      -17.363094
 C         -24.636095      -65.328369      -18.544996
 C         -24.143841      -65.871399      -19.900515
 C         -25.817404      -66.018463      -18.081173
 C         -24.420561      -67.375458      -20.100271
 C         -25.770710      -67.486595      -18.051916
 C         -25.657787      -67.939827      -19.492668
 H         -22.996027      -65.730301      -19.940054
 H         -24.605516      -65.395920      -20.768475
 H         -26.015295      -65.618484      -17.075359
 H         -26.711357      -65.635994      -18.634924
 H         -23.601267      -67.864326      -19.667860
 H         -24.388683      -67.486458      -21.157713
 H         -26.571842      -68.044281      -17.619944
 H         -24.919491      -67.750084      -17.418535
 H         -25.629120      -69.074463      -19.621120
 H         -26.521299      -67.657082      -20.115059
