20
 generated by VMD
 C         -21.511320      -55.984245      -17.482798
 N         -20.675591      -55.295624      -17.992334
 H         -23.343462      -58.719967      -15.308958
 H         -22.193707      -56.696915      -17.369823
 C         -22.421518      -59.184414      -15.096840
 C         -21.748299      -58.968372      -13.732537
 C         -21.719839      -60.015827      -16.186375
 C         -20.909389      -60.091080      -13.209773
 C         -20.271902      -60.463409      -15.660515
 C         -20.477896      -61.188995      -14.336137
 H         -22.432514      -58.508663      -13.027617
 H         -21.016041      -58.178291      -13.803294
 H         -22.281816      -60.946106      -16.370310
 H         -21.565039      -59.393806      -17.080189
 H         -21.349178      -60.584743      -12.291267
 H         -19.944841      -59.733551      -12.801739
 H         -19.584265      -59.663067      -15.514991
 H         -19.829884      -61.134571      -16.406559
 H         -21.167107      -62.046230      -14.351020
 H         -19.519531      -61.568954      -13.982191
