20
 generated by VMD
 C         -23.677485      -69.058998      -16.562231
 N         -23.675610      -69.844910      -15.715037
 H         -23.861696      -66.279243      -19.055733
 H         -23.897623      -68.374908      -17.482494
 C         -24.437649      -67.231499      -19.415964
 C         -23.921265      -67.882324      -20.730881
 C         -25.908522      -67.165298      -19.212961
 C         -24.496820      -69.337860      -20.819057
 C         -26.457285      -68.555664      -19.339806
 C         -26.014498      -69.368523      -20.577271
 H         -22.837248      -67.942169      -20.788395
 H         -24.214701      -67.332237      -21.570179
 H         -26.108074      -66.689491      -18.186356
 H         -26.612854      -66.508492      -19.952814
 H         -24.083195      -70.033661      -20.072014
 H         -24.200090      -69.725662      -21.820869
 H         -27.584822      -68.674347      -19.215611
 H         -26.133951      -69.099205      -18.374010
 H         -26.371910      -70.421829      -20.427145
 H         -26.320179      -68.923912      -21.567530
