20
 generated by VMD
 C         -18.123238      -48.564487       -7.350319
 N         -18.644337      -49.103004       -6.512571
 H         -16.188437      -48.098270      -10.164481
 H         -15.977553      -49.098835      -11.624817
 C         -16.256405      -48.076351      -11.269673
 C         -15.301548      -47.055710      -11.812559
 C         -17.683674      -47.662518      -11.686327
 C         -15.295148      -47.183773      -13.371393
 C         -17.831345      -47.357578      -13.199304
 C         -16.654549      -46.637711      -13.811947
 H         -14.242775      -47.042191      -11.467155
 H         -15.586392      -46.057762      -11.386870
 H         -18.423502      -48.403893      -11.402961
 H         -17.917202      -46.744419      -11.137088
 H         -15.179175      -48.254745      -13.633524
 H         -14.525883      -46.576107      -13.855423
 H         -18.836325      -46.793011      -13.396309
 H         -17.907103      -48.318077      -13.714524
 H         -16.714712      -46.727848      -14.902905
 H         -16.702005      -45.550014      -13.512579
