20
 generated by VMD
 C         -58.428444     -160.356247      -56.907063
 N         -58.650040     -159.838699      -57.983265
 H         -58.947720     -163.532669      -54.976643
 H         -58.325085     -160.792831      -55.917095
 C         -59.692581     -163.183395      -54.229958
 C         -59.400131     -163.167847      -52.806244
 C         -61.128433     -163.380936      -54.627686
 C         -60.386932     -162.263168      -52.124905
 C         -61.884140     -162.187866      -54.145588
 C         -61.846951     -162.184875      -52.643307
 H         -58.389912     -162.759277      -52.550606
 H         -59.560318     -164.167221      -52.444012
 H         -61.236485     -163.534164      -55.730526
 H         -61.578236     -164.358353      -54.239716
 H         -60.017860     -161.271118      -52.231682
 H         -60.451088     -162.476440      -51.042488
 H         -62.884003     -162.369034      -54.479527
 H         -61.468548     -161.320038      -54.639008
 H         -62.369232     -161.270554      -52.269489
 H         -62.386734     -163.036209      -52.288609
