20
 generated by VMD
 C         -51.072586     -130.788406      -46.299557
 N         -50.339043     -130.503662      -47.164043
 H         -48.013161     -132.234558      -44.335022
 H         -52.086929     -130.946320      -45.898895
 C         -48.209797     -132.396286      -43.319252
 C         -48.724640     -133.712753      -43.094456
 C         -48.204895     -131.285278      -42.264206
 C         -48.355156     -134.217575      -41.641247
 C         -47.861950     -131.783661      -40.936756
 C         -48.631721     -133.122269      -40.575390
 H         -48.129936     -134.449753      -43.752811
 H         -49.755703     -133.688217      -43.308533
 H         -47.397449     -130.680527      -42.628922
 H         -49.168716     -130.835098      -42.386368
 H         -47.294872     -134.497833      -41.570301
 H         -48.959129     -135.092026      -41.312019
 H         -47.904358     -130.957367      -40.292103
 H         -46.812527     -132.007446      -40.850594
 H         -48.264942     -133.428009      -39.643536
 H         -49.667641     -132.762894      -40.596367
