20
 generated by VMD
 C         -67.617287     -191.794571      -67.305122
 N         -67.063133     -192.622009      -66.654854
 H         -70.338486     -189.320862      -66.015129
 H         -67.861633     -190.919647      -67.816170
 C         -71.158096     -189.820801      -65.451294
 C         -71.715462     -191.099701      -65.869019
 C         -71.453453     -189.279266      -64.082573
 C         -73.125664     -191.260757      -65.397408
 C         -72.849701     -189.612427      -63.561176
 C         -73.245552     -191.064972      -63.797646
 H         -71.116371     -191.937347      -65.563354
 H         -71.608612     -191.203262      -66.992447
 H         -70.668892     -189.528992      -63.427666
 H         -71.391663     -188.187790      -64.164719
 H         -73.582016     -192.172226      -65.766953
 H         -73.631424     -190.401169      -65.910965
 H         -73.556808     -188.868195      -63.985935
 H         -72.857071     -189.492905      -62.455643
 H         -72.525864     -191.780563      -63.363052
 H         -74.213524     -191.118530      -63.406902
