20
 generated by VMD
 C         -58.619583     -168.514481      -54.930210
 N         -57.511734     -168.666138      -54.950405
 H         -62.248154     -168.388031      -55.579613
 H         -59.683281     -168.416977      -54.956142
 C         -62.348907     -167.580063      -56.271709
 C         -62.679073     -167.824188      -57.635124
 C         -62.844040     -166.343735      -55.688225
 C         -64.143860     -167.605209      -58.033920
 C         -64.399940     -166.077682      -55.970882
 C         -64.574745     -166.230499      -57.482590
 H         -62.533272     -168.813965      -57.891125
 H         -62.026878     -167.237366      -58.325562
 H         -62.800659     -166.447647      -54.610203
 H         -62.125381     -165.428192      -55.982613
 H         -64.882385     -168.324677      -57.722542
 H         -64.284546     -167.563690      -59.093571
 H         -64.620537     -165.069351      -55.752560
 H         -64.924316     -166.684265      -55.396679
 H         -65.635574     -166.051346      -57.678139
 H         -64.085098     -165.517044      -58.104069
