20
 generated by VMD
 C         -10.624619      -33.036930       -8.805519
 N         -10.991432      -33.960880       -9.355673
 H         -13.051978      -34.067924       -6.475140
 H         -13.028754      -34.497551       -4.793287
 C         -12.978009      -34.928837       -5.817287
 C         -11.735881      -35.726418       -6.091612
 C         -14.200669      -35.778706       -6.292607
 C         -11.719212      -37.123413       -5.531055
 C         -14.229275      -37.289982       -5.813645
 C         -12.847814      -37.927235       -6.152177
 H         -10.823927      -35.217625       -5.644311
 H         -11.579849      -35.776627       -7.178647
 H         -15.115295      -35.380955       -5.875101
 H         -14.225305      -35.779408       -7.406138
 H         -11.783943      -36.990021       -4.453277
 H         -10.717950      -37.538261       -5.732183
 H         -15.055733      -37.825695       -6.232130
 H         -14.334444      -37.259171       -4.646305
 H         -12.901073      -38.976055       -5.756880
 H         -12.740655      -37.916290       -7.227623
