20
 generated by VMD
 C         -29.066780      -74.399727      -19.474415
 N         -30.157890      -74.348671      -19.843517
 H         -25.642691      -73.320877      -18.910219
 H         -27.894562      -74.270767      -19.418848
 C         -25.775011      -73.230629      -19.960012
 C         -25.444309      -74.523094      -20.643368
 C         -25.656677      -71.853638      -20.492620
 C         -25.885836      -74.392715      -22.205153
 C         -26.095861      -71.819229      -21.878426
 C         -25.661482      -72.992874      -22.698261
 H         -25.879906      -75.364929      -20.172293
 H         -24.323229      -74.636360      -20.635944
 H         -26.350374      -71.225792      -19.922270
 H         -24.647888      -71.614441      -20.251528
 H         -26.973885      -74.595642      -22.336971
 H         -25.271429      -75.090698      -22.747023
 H         -25.624716      -70.919456      -22.302401
 H         -27.257236      -71.622391      -21.993874
 H         -26.013731      -72.789604      -23.718460
 H         -24.582371      -72.974365      -22.776119
