20
 generated by VMD
 C         -25.660868      -71.339851      -16.855244
 N         -26.283293      -72.238647      -16.403048
 H         -24.385284      -68.989365      -18.742981
 H         -24.968166      -70.701111      -17.246447
 C         -24.833597      -69.456558      -19.604519
 C         -23.966537      -70.465431      -20.449934
 C         -25.815924      -68.568642      -20.198938
 C         -24.999193      -71.379463      -21.325214
 C         -26.796122      -69.438599      -21.064365
 C         -26.008787      -70.443268      -22.003080
 H         -23.381857      -71.219521      -19.930275
 H         -23.375484      -69.900940      -21.212345
 H         -26.386295      -68.013733      -19.469131
 H         -25.334888      -67.857567      -20.796419
 H         -25.469807      -72.137009      -20.692574
 H         -24.337463      -71.922310      -22.084541
 H         -27.369682      -68.771629      -21.709576
 H         -27.686781      -69.907867      -20.536812
 H         -26.719645      -71.091743      -22.531902
 H         -25.397186      -69.920830      -22.786665
