20
 generated by VMD
 C         -68.447769     -195.029709      -65.360458
 N         -68.805824     -195.489365      -64.360687
 H         -71.253723     -194.586853      -67.416748
 H         -68.068169     -194.866989      -66.309525
 C         -72.097839     -193.956223      -67.063889
 C         -71.889008     -192.530411      -66.615509
 C         -73.430618     -194.188538      -67.784325
 C         -73.140388     -191.924286      -65.845108
 C         -74.555214     -193.800415      -66.755341
 C         -74.399849     -192.264099      -66.606163
 H         -71.531898     -191.896973      -67.404457
 H         -70.901749     -192.457077      -66.006248
 H         -73.389473     -193.704727      -68.703239
 H         -73.563072     -195.203064      -68.213219
 H         -72.972969     -190.803177      -65.657883
 H         -73.190552     -192.320923      -64.829315
 H         -74.451546     -194.312866      -65.775932
 H         -75.583427     -194.014297      -67.139893
 H         -74.415787     -191.702408      -67.686447
 H         -75.318520     -191.868317      -66.069817
