20
 generated by VMD
 C         -70.258881     -183.100845      -63.938858
 N         -69.885521     -183.240112      -65.013725
 H         -68.559288     -179.955002      -62.377041
 H         -70.657578     -183.029251      -62.976761
 C         -67.745476     -180.284286      -61.692856
 C         -67.812866     -181.799301      -61.361290
 C         -66.986336     -179.426834      -60.768147
 C         -66.434715     -182.435333      -60.862793
 C         -65.593819     -180.016800      -60.428551
 C         -65.681580     -181.489731      -59.982403
 H         -68.218781     -182.420746      -62.231224
 H         -68.491112     -181.796524      -60.544392
 H         -66.777550     -178.384674      -61.183388
 H         -67.569633     -179.477356      -59.906353
 H         -65.806915     -182.533142      -61.702450
 H         -66.669373     -183.356018      -60.422657
 H         -65.048782     -179.492371      -59.610645
 H         -65.040199     -179.959961      -61.378014
 H         -64.612816     -181.999908      -59.818108
 H         -66.144691     -181.453384      -59.022812
