20
 generated by VMD
 C          -1.840931      -13.975898        2.320870
 N          -1.768949      -14.689567        1.469863
 H          -3.752205      -16.820631        0.941911
 H          -4.334961      -17.125977       -0.763944
 C          -4.649724      -16.947359        0.277113
 C          -5.581327      -15.635768        0.438423
 C          -5.401334      -18.148489        0.870890
 C          -6.835907      -15.850414       -0.370281
 C          -6.774749      -18.344303        0.206178
 C          -7.620718      -17.076384        0.054058
 H          -5.058399      -14.789402        0.041384
 H          -5.666048      -15.414559        1.539687
 H          -4.726208      -19.048302        0.674855
 H          -5.518652      -18.035320        2.045016
 H          -6.671750      -15.942769       -1.416116
 H          -7.509454      -14.978240       -0.346583
 H          -7.293081      -19.097994        0.725626
 H          -6.581857      -18.767323       -0.780893
 H          -8.542586      -17.157108       -0.558566
 H          -7.977788      -16.789616        1.049279
