20
 generated by VMD
 C         -48.020649     -133.999268      -47.608269
 N         -48.084164     -133.355865      -48.558018
 H         -49.641323     -134.031647      -44.057678
 H         -47.720592     -134.401230      -46.628674
 C         -50.065964     -135.012955      -43.662827
 C         -50.221294     -136.172424      -44.544910
 C         -51.046867     -134.740677      -42.573929
 C         -50.560493     -137.430283      -43.706593
 C         -51.394505     -136.078491      -41.819164
 C         -51.692604     -137.196274      -42.743256
 H         -49.374828     -136.412354      -45.116993
 H         -51.071018     -136.098190      -45.256466
 H         -50.699741     -133.918289      -41.912945
 H         -51.909603     -134.408676      -43.066921
 H         -49.756065     -137.794235      -43.098827
 H         -50.786057     -138.252823      -44.453098
 H         -52.240150     -135.911362      -41.111652
 H         -50.478497     -136.256622      -41.141396
 H         -51.726025     -138.092651      -41.978054
 H         -52.629890     -136.984787      -43.180408
