20
 generated by VMD
 C         -50.292526     -129.532761      -43.438839
 N         -50.856541     -129.709534      -44.498173
 H         -49.079784     -127.884262      -40.832188
 H         -49.930737     -129.457886      -42.437382
 C         -48.043091     -128.097992      -41.029686
 C         -47.648594     -129.639877      -40.803284
 C         -46.946602     -127.078888      -40.685474
 C         -46.407707     -129.926636      -41.628796
 C         -45.717403     -127.512642      -41.519398
 C         -45.272999     -128.957016      -41.224209
 H         -48.601227     -130.136642      -41.138531
 H         -47.410934     -129.828598      -39.773300
 H         -47.362877     -126.111618      -40.914570
 H         -46.795776     -127.088676      -39.624050
 H         -46.628368     -129.609985      -42.729683
 H         -46.081570     -130.968292      -41.394566
 H         -45.009209     -126.679398      -41.286079
 H         -45.966518     -127.438171      -42.646519
 H         -44.323883     -129.255508      -41.714664
 H         -44.926373     -128.944321      -40.188305
