20
 generated by VMD
 C         -65.875130     -177.697983      -56.898506
 N         -66.339928     -176.665909      -57.173599
 H         -64.923058     -175.857803      -59.372314
 H         -65.448174     -178.654266      -56.732357
 C         -64.569557     -174.747742      -59.328045
 C         -65.477730     -173.748734      -58.746830
 C         -63.500645     -174.394073      -60.311924
 C         -65.249184     -172.247299      -59.022606
 C         -63.136929     -172.913254      -60.175156
 C         -64.418121     -172.038223      -60.289375
 H         -65.375481     -173.945129      -57.655281
 H         -66.496613     -173.947571      -59.083893
 H         -62.569878     -175.066376      -60.115368
 H         -63.958187     -174.413284      -61.281582
 H         -64.567383     -171.778564      -58.222176
 H         -66.224152     -171.681076      -59.037430
 H         -62.327347     -172.682678      -60.913769
 H         -62.761402     -172.630066      -59.195271
 H         -64.043030     -171.053085      -60.192982
 H         -64.852745     -172.192307      -61.317375
