20
 generated by VMD
 C         -12.343845      -27.230103       -2.660553
 N         -13.321534      -27.639809       -2.339204
 H         -10.638196      -26.979471       -3.938601
 H          -9.404458      -26.397888       -5.144862
 C          -9.534497      -26.991285       -4.175836
 C          -8.979561      -28.356922       -4.522262
 C          -8.839912      -26.224859       -3.099087
 C          -7.505661      -28.402300       -4.601582
 C          -7.295512      -26.285257       -3.090042
 C          -6.754601      -27.663979       -3.516842
 H          -9.434808      -28.853277       -5.346723
 H          -9.424852      -28.943848       -3.670302
 H          -9.211553      -25.190399       -3.053121
 H          -9.130503      -26.582352       -2.086638
 H          -7.191565      -27.989378       -5.552723
 H          -7.132282      -29.423840       -4.690419
 H          -6.841457      -25.961782       -2.185312
 H          -6.915262      -25.639141       -3.875391
 H          -5.665195      -27.579447       -3.748485
 H          -6.906148      -28.294847       -2.621535
