20
 generated by VMD
 C         -29.923967      -73.992783      -20.580265
 N         -29.946535      -75.137466      -20.312716
 H         -26.902281      -74.402855      -19.139818
 H         -29.880205      -73.096359      -21.045815
 C         -26.543789      -74.218208      -20.174335
 C         -26.063913      -75.442627      -20.936129
 C         -26.049261      -72.842674      -20.394808
 C         -25.995792      -75.088806      -22.458443
 C         -25.939667      -72.602348      -21.882095
 C         -25.354990      -73.750374      -22.622881
 H         -26.566824      -76.284286      -20.747810
 H         -25.053814      -75.726814      -20.613605
 H         -26.689735      -72.227669      -19.755444
 H         -25.128124      -72.791954      -19.947132
 H         -27.082239      -75.151993      -22.693451
 H         -25.432005      -75.764626      -23.129103
 H         -25.422907      -71.729439      -21.985683
 H         -26.975060      -72.443092      -22.140808
 H         -25.322729      -73.425835      -23.715565
 H         -24.353947      -73.877205      -22.152029
