20
 generated by VMD
 C         -67.698448     -179.533417      -58.684383
 N         -68.122971     -179.712936      -59.753422
 H         -67.493240     -176.783661      -59.807240
 H         -67.262039     -179.256668      -57.726425
 C         -66.450684     -176.645920      -60.064938
 C         -66.020683     -176.068924      -61.408070
 C         -65.258171     -177.164825      -59.248211
 C         -65.040695     -174.911102      -61.213505
 C         -64.298927     -176.045288      -59.138241
 C         -63.833496     -175.564407      -60.522106
 H         -66.934883     -175.605789      -61.829288
 H         -65.592308     -176.673660      -62.181324
 H         -65.607010     -177.673965      -58.291664
 H         -64.793900     -177.933350      -59.873692
 H         -65.437599     -174.154083      -60.629200
 H         -64.684082     -174.541351      -62.142651
 H         -63.411179     -176.471405      -58.719353
 H         -64.722717     -175.308731      -58.419395
 H         -63.204567     -174.681213      -60.315495
 H         -63.280834     -176.179993      -61.219196
