20
 generated by VMD
 C         -63.113964     -173.402313      -55.673965
 N         -63.201073     -174.062607      -54.743313
 H         -61.578506     -171.572372      -58.759827
 H         -62.990688     -172.653091      -56.463795
 C         -62.514236     -171.064209      -58.600380
 C         -62.607277     -169.756744      -57.794296
 C         -63.817944     -171.764999      -59.124287
 C         -63.662750     -168.783356      -58.329063
 C         -64.929230     -170.835434      -59.534325
 C         -65.012344     -169.529266      -58.570301
 H         -61.555222     -169.241760      -57.851017
 H         -62.760128     -170.022461      -56.837337
 H         -63.454361     -172.318954      -59.991196
 H         -63.927883     -172.507446      -58.303673
 H         -63.367317     -168.437317      -59.242996
 H         -63.688484     -167.958847      -57.658501
 H         -65.906097     -171.420776      -59.577110
 H         -64.723701     -170.483505      -60.590710
 H         -65.736755     -168.811035      -58.991379
 H         -65.486092     -169.948212      -57.617905
