20
 generated by VMD
 C         -78.366898     -209.792053      -77.250404
 N         -78.984245     -208.870789      -77.058327
 H         -78.527161     -210.532516      -73.530350
 H         -77.790405     -210.760788      -77.379112
 C         -78.608368     -211.392929      -72.842880
 C         -77.502975     -211.661819      -71.848434
 C         -79.899681     -212.203659      -72.963104
 C         -78.045746     -212.020218      -70.529236
 C         -80.348625     -212.651718      -71.560371
 C         -79.202553     -213.004288      -70.655373
 H         -76.840309     -210.813232      -71.834709
 H         -76.848351     -212.463882      -72.213737
 H         -80.694450     -211.537918      -73.407127
 H         -79.652237     -213.007248      -73.625694
 H         -78.342239     -211.088272      -70.092819
 H         -77.310532     -212.468109      -69.867996
 H         -80.904213     -213.556229      -71.735756
 H         -81.207657     -212.041061      -71.210884
 H         -79.545174     -213.507339      -69.766525
 H         -78.753944     -213.866806      -71.193527
