20
 generated by VMD
 C         -28.088417      -87.175003      -27.157730
 N         -27.700462      -86.939873      -26.063021
 H         -31.212214      -88.335686      -25.251511
 H         -28.471613      -87.519760      -28.189152
 C         -32.215530      -88.338181      -25.671202
 C         -33.387688      -88.647987      -24.856344
 C         -32.341011      -88.416718      -27.184793
 C         -34.537857      -87.704750      -25.251749
 C         -33.627224      -87.574203      -27.740568
 C         -34.793514      -87.756935      -26.843395
 H         -33.285069      -88.391693      -23.821463
 H         -33.528263      -89.744728      -24.935818
 H         -31.495047      -88.044197      -27.715946
 H         -32.534359      -89.476738      -27.459684
 H         -34.289104      -86.662636      -25.020309
 H         -35.477425      -87.843414      -24.783453
 H         -33.880714      -87.868980      -28.795870
 H         -33.174652      -86.582207      -27.706537
 H         -35.573704      -87.021309      -27.110966
 H         -35.270538      -88.728172      -26.960567
