20
 generated by VMD
 C         -68.927872     -184.688934      -66.335396
 N         -69.539307     -185.457748      -66.954308
 H         -69.733192     -183.010269      -63.529011
 H         -68.387199     -184.002182      -65.653648
 C         -69.148682     -183.524948      -62.776848
 C         -69.842834     -184.761795      -62.126278
 C         -68.121300     -182.885300      -61.922329
 C         -68.957939     -185.635101      -61.276173
 C         -67.027290     -183.811707      -61.274624
 C         -67.791595     -184.948441      -60.503578
 H         -70.156891     -185.310959      -63.028599
 H         -70.734474     -184.375717      -61.609028
 H         -67.597717     -182.112701      -62.483349
 H         -68.632790     -182.391800      -60.999836
 H         -68.628571     -186.346039      -61.971260
 H         -69.545410     -186.180267      -60.566795
 H         -66.294327     -183.372955      -60.545456
 H         -66.395203     -184.097733      -62.094509
 H         -66.939621     -185.681366      -60.107925
 H         -68.074921     -184.445221      -59.523060
