20
 generated by VMD
 C         -29.292379      -90.489037      -24.995264
 N         -29.001482      -91.564972      -25.174503
 H         -32.159821      -91.350655      -27.529358
 H         -29.692709      -89.467781      -24.684534
 C         -33.104271      -90.878502      -27.824917
 C         -34.399223      -91.503212      -27.522579
 C         -33.015598      -89.677101      -28.603025
 C         -35.604652      -90.475113      -27.305462
 C         -34.298992      -88.763504      -28.401606
 C         -35.631283      -89.555115      -28.543320
 H         -34.288307      -92.123291      -26.609936
 H         -34.715748      -92.184502      -28.448713
 H         -32.180222      -89.136169      -28.195343
 H         -32.943317      -89.843269      -29.670910
 H         -35.442570      -90.145111      -26.261099
 H         -36.469994      -91.077599      -27.262524
 H         -34.367001      -88.060966      -29.224375
 H         -34.415276      -88.205521      -27.443306
 H         -36.476757      -88.940079      -28.323351
 H         -35.582531      -90.035652      -29.527920
