20
 generated by VMD
 C         -28.034092      -81.230949      -27.541288
 N         -29.209747      -81.185410      -27.494057
 H         -29.358936      -83.246468      -24.890839
 H         -27.003630      -81.281036      -27.863762
 C         -30.243744      -83.683388      -24.497810
 C         -30.206636      -83.919243      -23.069845
 C         -30.827810      -84.800148      -25.331612
 C         -31.534754      -84.312523      -22.573586
 C         -32.224651      -84.957901      -24.800877
 C         -32.268353      -85.557220      -23.359407
 H         -29.783741      -83.054733      -22.406462
 H         -29.530319      -84.795341      -22.908941
 H         -30.782116      -84.546059      -26.371927
 H         -30.297384      -85.783661      -25.201307
 H         -32.182793      -83.376137      -22.482498
 H         -31.574638      -84.601494      -21.494247
 H         -32.707222      -85.749046      -25.480597
 H         -32.823372      -83.986923      -24.988705
 H         -33.295429      -85.833527      -22.998806
 H         -31.558666      -86.449699      -23.180128
