20
 generated by VMD
 C         -10.526530      -35.492939       -8.204291
 N         -10.203830      -36.312515       -8.921482
 H         -13.412345      -37.181232       -6.713117
 H         -14.658503      -38.091789       -5.913461
 C         -14.052636      -38.106251       -6.782896
 C         -13.099154      -39.263996       -6.976248
 C         -15.022011      -38.075813       -7.922735
 C         -13.888755      -40.526440       -6.919408
 C         -15.806850      -39.366142       -8.144263
 C         -14.874089      -40.576454       -8.041151
 H         -12.328238      -39.154343       -6.190464
 H         -12.524917      -39.167900       -7.920128
 H         -15.800663      -37.273354       -7.764188
 H         -14.596158      -37.856457       -8.907815
 H         -14.409566      -40.739117       -5.929702
 H         -13.246395      -41.387142       -7.029820
 H         -16.240156      -39.376408       -9.195579
 H         -16.614380      -39.419273       -7.462952
 H         -15.426666      -41.550903       -7.941298
 H         -14.312077      -40.689602       -8.982219
