20
 generated by VMD
 C         -30.992773      -74.893867      -22.541990
 N         -31.214449      -75.677452      -21.701839
 H         -28.747217      -77.203964      -21.265429
 H         -31.044901      -73.831688      -22.930647
 C         -27.684889      -76.845451      -21.303007
 C         -26.681929      -77.626183      -22.160866
 C         -27.250059      -75.595139      -20.639490
 C         -25.811399      -76.756218      -22.940943
 C         -26.443287      -74.742516      -21.542744
 C         -25.290737      -75.523659      -22.110735
 H         -27.128654      -78.315964      -22.793186
 H         -26.132963      -78.060356      -21.407171
 H         -28.045856      -75.006508      -20.241245
 H         -26.621433      -75.895317      -19.776438
 H         -26.357430      -76.419281      -23.817739
 H         -24.920261      -77.248634      -23.343622
 H         -26.021236      -73.923492      -20.965502
 H         -27.033772      -74.450302      -22.381012
 H         -24.658661      -74.948776      -22.798233
 H         -24.741129      -75.962013      -21.344217
