20
 generated by VMD
 C         -38.777924     -111.492844      -36.419605
 N         -38.334782     -110.451889      -36.804100
 H         -40.445114     -114.612183      -34.744389
 H         -39.147762     -112.465958      -36.254951
 C         -41.336090     -114.040871      -35.152962
 C         -41.689007     -114.191223      -36.591290
 C         -42.033855     -112.996559      -34.301079
 C         -43.190758     -114.066032      -36.795898
 C         -43.488297     -113.089851      -34.524143
 C         -43.797829     -112.895111      -36.107109
 H         -41.335300     -115.213264      -36.737850
 H         -41.183826     -113.403313      -37.164482
 H         -41.833954     -113.367699      -33.255714
 H         -41.440300     -112.110764      -34.368881
 H         -43.750656     -115.061081      -36.499512
 H         -43.453270     -114.044586      -37.877850
 H         -43.972595     -112.330650      -33.943645
 H         -43.992641     -114.003265      -34.290794
 H         -44.888721     -112.884872      -36.162083
 H         -43.506828     -111.937080      -36.416019
