20
 generated by VMD
 C         -20.049919      -60.174934      -17.004604
 N         -18.929972      -60.426727      -17.215940
 H         -23.180544      -60.566074      -17.082983
 H         -21.141296      -59.800667      -16.793201
 C         -23.172874      -61.657368      -16.889654
 C         -23.468090      -62.607994      -18.003651
 C         -23.333935      -62.181252      -15.493281
 C         -23.904442      -64.142784      -17.874706
 C         -23.146513      -63.615612      -15.374049
 C         -23.959332      -64.469345      -16.339951
 H         -22.636719      -62.593285      -18.729870
 H         -24.462948      -62.226864      -18.414982
 H         -22.664494      -61.653011      -14.801323
 H         -24.418491      -62.020123      -15.257513
 H         -23.134981      -64.798561      -18.323519
 H         -24.873568      -64.355278      -18.360647
 H         -23.382328      -63.855309      -14.315127
 H         -22.091301      -63.937153      -15.290408
 H         -23.751293      -65.522079      -16.222891
 H         -24.988892      -64.436424      -15.957557
