20
 generated by VMD
 C         -33.516659      -96.517616      -25.311819
 N         -32.683331      -96.880592      -24.598259
 H         -34.703342      -93.644951      -27.428848
 H         -34.241302      -96.316040      -26.140680
 C         -34.756157      -93.385826      -28.509460
 C         -36.118080      -93.741890      -29.182770
 C         -33.484047      -93.204460      -29.283482
 C         -36.202316      -92.885803      -30.416533
 C         -33.793365      -92.416626      -30.556643
 C         -34.982944      -92.990364      -31.265980
 H         -36.871197      -93.453354      -28.513123
 H         -36.260075      -94.832298      -29.300533
 H         -32.757706      -92.719643      -28.691652
 H         -33.009838      -94.130852      -29.600327
 H         -36.486794      -91.833176      -30.203928
 H         -37.081181      -93.232704      -30.983845
 H         -32.940155      -92.333984      -31.161617
 H         -34.149361      -91.379738      -30.264130
 H         -34.933395      -92.338684      -32.257164
 H         -34.801617      -93.991158      -31.613966
