20
 generated by VMD
 C         -57.637356     -165.225998      -56.575756
 N         -57.225491     -164.356934      -57.217419
 H         -60.256046     -164.480850      -53.844147
 H         -58.006958     -166.034225      -55.970650
 C         -61.195564     -164.692673      -54.368053
 C         -61.949173     -166.009811      -54.197090
 C         -61.607857     -164.064407      -55.670528
 C         -63.451481     -165.865280      -54.270329
 C         -63.117603     -163.958725      -55.901142
 C         -63.795406     -165.315826      -55.669785
 H         -61.763317     -166.376923      -53.210869
 H         -61.601467     -166.779770      -54.984116
 H         -60.959862     -163.138184      -55.660419
 H         -61.153435     -164.736038      -56.379147
 H         -63.948959     -165.307083      -53.413647
 H         -64.027222     -166.829437      -54.358177
 H         -63.175686     -163.740005      -57.067974
 H         -63.516582     -163.202209      -55.257713
 H         -64.808075     -165.238922      -55.939362
 H         -63.586689     -166.079361      -56.410324
