20
 generated by VMD
 C         -50.703350     -145.060898      -44.852592
 N         -50.827663     -146.012207      -44.275517
 H         -53.507050     -144.398361      -46.437866
 H         -50.479828     -144.197601      -45.461456
 C         -53.574665     -143.579346      -47.133511
 C         -52.568459     -143.496002      -48.238335
 C         -54.665504     -142.620773      -47.122475
 C         -53.338501     -143.513641      -49.616585
 C         -55.501072     -142.675583      -48.434803
 C         -54.545132     -142.470581      -49.631256
 H         -51.993988     -144.448074      -48.101524
 H         -52.050446     -142.609283      -48.131195
 H         -55.225357     -142.781448      -46.210392
 H         -54.326279     -141.475388      -47.002338
 H         -53.669292     -144.469437      -49.916775
 H         -52.538128     -143.374329      -50.316154
 H         -56.342003     -141.954422      -48.507286
 H         -55.862930     -143.636902      -48.427628
 H         -55.180927     -142.731583      -50.429665
 H         -54.224915     -141.447693      -49.587624
