20
 generated by VMD
 C         -30.809145      -78.120674      -25.900320
 N         -31.826851      -77.620056      -25.973202
 H         -29.236828      -77.845108      -22.748007
 H         -29.927340      -78.558479      -26.129269
 C         -28.888823      -78.844231      -22.879433
 C         -27.449158      -79.045784      -23.299021
 C         -29.677923      -80.052238      -22.541901
 C         -26.717810      -79.847740      -22.182287
 C         -29.058084      -80.802254      -21.378550
 C         -27.466280      -81.046257      -21.586988
 H         -26.994154      -78.087685      -23.489393
 H         -27.409031      -79.610619      -24.168276
 H         -30.694849      -79.741104      -22.123062
 H         -29.771746      -80.739693      -23.332968
 H         -26.477972      -79.064758      -21.437788
 H         -25.804659      -80.283455      -22.482689
 H         -29.497829      -81.768242      -21.188644
 H         -29.297001      -80.423332      -20.331511
 H         -27.011166      -81.344940      -20.587854
 H         -27.233356      -81.970123      -22.289150
