20
 generated by VMD
 C         -20.461899      -61.503548      -17.021666
 N         -19.368015      -61.086372      -17.207066
 H         -21.722832      -65.053268      -17.014439
 H         -21.625374      -61.686512      -16.850491
 C         -22.797371      -64.887558      -17.098604
 C         -22.975063      -64.239746      -18.428596
 C         -23.777161      -65.124542      -16.007305
 C         -24.469006      -64.594711      -18.805180
 C         -25.146347      -65.431961      -16.460226
 C         -25.462891      -64.557152      -17.642530
 H         -22.272327      -64.631439      -19.151777
 H         -22.936430      -63.175404      -18.234863
 H         -23.502697      -65.950577      -15.396210
 H         -23.871469      -64.336006      -15.291657
 H         -24.555584      -65.547165      -19.260838
 H         -24.926336      -63.980766      -19.601114
 H         -25.921465      -65.412209      -15.690197
 H         -25.174679      -66.494934      -16.758020
 H         -26.489103      -64.739532      -17.909084
 H         -25.636053      -63.504406      -17.334303
