20
 generated by VMD
 C         -28.197695      -84.642403      -26.110985
 N         -28.266039      -84.151665      -27.160324
 H         -31.406357      -84.354088      -26.191458
 H         -28.103157      -85.143959      -25.094860
 C         -31.503611      -85.366020      -25.885164
 C         -31.561623      -85.791222      -24.284781
 C         -31.879198      -86.665062      -26.770601
 C         -33.008453      -86.253639      -23.938883
 C         -33.252865      -87.170456      -26.336691
 C         -33.416634      -87.387581      -24.813116
 H         -31.418468      -84.878998      -23.699619
 H         -30.763721      -86.574966      -24.158201
 H         -31.980799      -86.340286      -27.794819
 H         -31.143688      -87.465179      -26.808184
 H         -33.634495      -85.335876      -24.188599
 H         -33.005554      -86.465256      -22.894594
 H         -33.526993      -88.142189      -26.736965
 H         -34.166988      -86.516495      -26.558481
 H         -34.508701      -87.728577      -24.833576
 H         -32.819023      -88.308060      -24.457506
