20
 generated by VMD
 C         -60.744118     -154.990402      -51.733303
 N         -60.709846     -153.988586      -52.219269
 H         -57.650642     -153.771103      -52.976795
 H         -60.882687     -155.959473      -51.268433
 C         -56.891815     -153.774353      -52.184242
 C         -57.388657     -154.033752      -50.785725
 C         -55.565708     -153.188385      -52.514065
 C         -56.263260     -154.424942      -49.801842
 C         -54.592667     -153.558090      -51.461796
 C         -55.043327     -153.550812      -50.018101
 H         -58.119164     -154.730194      -50.607529
 H         -57.754372     -153.067169      -50.552620
 H         -55.273571     -153.658203      -53.477901
 H         -55.749813     -152.093369      -52.593613
 H         -55.991837     -155.430435      -50.063576
 H         -56.497498     -154.186630      -48.763775
 H         -53.787090     -152.891724      -51.593739
 H         -54.091461     -154.583160      -51.623211
 H         -54.225456     -153.967422      -49.430183
 H         -55.362583     -152.543991      -49.755821
