20
 generated by VMD
 C         -14.194598      -28.111839       -3.128606
 N         -14.053743      -27.180178       -3.733542
 H         -10.342628      -28.297737       -2.768671
 H          -9.938545      -27.279858       -4.136919
 C          -9.444023      -27.921099       -3.432855
 C          -8.834589      -29.142859       -4.216626
 C          -8.426500      -27.298071       -2.511767
 C          -7.701330      -28.656052       -5.124865
 C          -7.182303      -26.924593       -3.300750
 C          -6.620634      -27.952538       -4.256524
 H          -9.592695      -29.578257       -4.883084
 H          -8.614597      -29.879860       -3.483317
 H          -8.846985      -26.397264       -2.047285
 H          -8.129502      -27.857353       -1.590272
 H          -7.995133      -27.964180       -5.927996
 H          -7.278515      -29.551933       -5.577126
 H          -6.393658      -26.777822       -2.523953
 H          -7.299402      -25.977673       -3.762741
 H          -5.971478      -27.403206       -4.914724
 H          -5.993966      -28.648886       -3.642040
