20
 generated by VMD
 C         -50.021465     -132.013245      -46.646717
 N         -49.991604     -132.526459      -47.718929
 H         -48.267097     -132.225403      -44.123920
 H         -50.043503     -131.126419      -45.959625
 C         -48.644863     -132.804550      -43.326221
 C         -49.562519     -133.890594      -43.787430
 C         -48.870300     -132.328812      -41.906479
 C         -49.416164     -135.116837      -42.929443
 C         -48.746109     -133.550140      -40.984734
 C         -49.555660     -134.786911      -41.423256
 H         -49.138714     -134.064301      -44.818256
 H         -50.539700     -133.406189      -43.989925
 H         -48.101883     -131.559204      -41.702168
 H         -49.831390     -131.999237      -41.809250
 H         -48.563854     -135.680328      -43.224350
 H         -50.201401     -135.784714      -43.240150
 H         -49.023220     -133.288071      -39.944641
 H         -47.576366     -133.860153      -40.869411
 H         -49.097408     -135.755600      -41.075603
 H         -50.617435     -134.703186      -41.304234
