20
 generated by VMD
 C         -40.127907     -104.803337      -36.328049
 N         -39.452015     -104.265533      -37.082180
 H         -40.282177     -108.312363      -35.229328
 H         -40.664253     -105.151253      -35.483982
 C         -39.808022     -108.448784      -34.255871
 C         -38.808479     -107.467964      -33.771038
 C         -40.198330     -109.645439      -33.535259
 C         -38.958439     -107.240883      -32.277370
 C         -40.108364     -109.473373      -31.927639
 C         -39.079617     -108.564888      -31.443262
 H         -39.003189     -106.530334      -34.241108
 H         -37.816387     -107.684265      -34.083138
 H         -41.297871     -109.838333      -33.774418
 H         -39.692993     -110.584953      -33.793682
 H         -39.852718     -106.586388      -32.092781
 H         -38.082378     -106.700493      -31.794744
 H         -39.856255     -110.438644      -31.401869
 H         -41.060719     -109.055687      -31.666510
 H         -39.360584     -108.353485      -30.305725
 H         -38.143459     -109.191559      -31.494026
