20
 generated by VMD
 C         -79.222000     -207.196716      -75.287308
 N         -78.744125     -207.142731      -76.337791
 H         -78.853859     -210.387802      -73.326637
 H         -79.732208     -207.525497      -74.328888
 C         -78.276649     -210.237442      -72.388710
 C         -77.177498     -209.115067      -72.328079
 C         -78.479683     -211.165039      -71.218658
 C         -76.869392     -208.575897      -70.734764
 C         -78.392639     -210.457352      -69.880150
 C         -77.069473     -209.670456      -69.720131
 H         -77.292282     -208.308090      -73.075165
 H         -76.217850     -209.642761      -72.570671
 H         -79.395279     -211.683777      -71.406891
 H         -77.724426     -211.985794      -71.271263
 H         -77.493546     -207.708847      -70.506218
 H         -75.841621     -208.332779      -70.863167
 H         -78.405991     -211.192932      -69.004951
 H         -79.227478     -209.764038      -69.760719
 H         -76.916359     -209.326065      -68.701553
 H         -76.292526     -210.359711      -70.065956
