20
 generated by VMD
 C         -40.094986     -104.784767      -36.214436
 N         -39.460106     -104.351646      -37.067749
 H         -40.110592     -108.308609      -35.348423
 H         -40.619156     -105.335434      -35.411594
 C         -39.773212     -108.372681      -34.324329
 C         -38.826260     -107.363571      -33.749138
 C         -40.255508     -109.565384      -33.427097
 C         -39.006077     -107.170631      -32.241322
 C         -40.085796     -109.543526      -31.942566
 C         -38.951595     -108.486595      -31.555477
 H         -38.968399     -106.375534      -34.214531
 H         -37.895969     -107.821251      -33.852959
 H         -41.316010     -109.805824      -33.600269
 H         -39.713104     -110.399330      -33.822502
 H         -39.901398     -106.648903      -31.975924
 H         -38.220139     -106.490974      -31.933258
 H         -40.049328     -110.529648      -31.591259
 H         -41.063496     -109.255402      -31.501947
 H         -39.022388     -108.275200      -30.384089
 H         -38.005814     -108.924225      -31.673243
