20
 generated by VMD
 C         -23.023268      -68.525803      -16.616909
 N         -23.071381      -69.288040      -15.752002
 H         -23.928337      -66.079224      -18.677637
 H         -23.068336      -67.719315      -17.452797
 C         -24.546099      -66.845352      -19.226843
 C         -23.968296      -67.642296      -20.366358
 C         -25.970919      -66.971863      -18.964863
 C         -24.534872      -69.049438      -20.566162
 C         -26.466494      -68.361938      -19.315264
 C         -26.005821      -69.122704      -20.602352
 H         -22.924084      -67.727188      -20.328766
 H         -24.113853      -67.105141      -21.323841
 H         -26.074467      -66.560387      -17.989847
 H         -26.548933      -66.161324      -19.480038
 H         -24.160892      -69.713097      -19.822062
 H         -24.200924      -69.435837      -21.549881
 H         -27.537300      -68.402260      -19.332373
 H         -26.316742      -68.989372      -18.410604
 H         -26.508968      -70.090218      -20.475956
 H         -26.383606      -68.589157      -21.481049
