20
 generated by VMD
 C         -49.535736     -127.655640      -39.773785
 N         -50.459911     -127.556999      -40.443153
 H         -47.498222     -127.274742      -41.955601
 H         -48.562550     -127.755440      -39.340744
 C         -46.573551     -126.646278      -41.665741
 C         -45.730247     -127.257179      -40.598778
 C         -46.722347     -125.097847      -41.942539
 C         -44.438755     -126.425453      -40.535908
 C         -45.322079     -124.504272      -41.657726
 C         -44.729134     -124.968552      -40.342842
 H         -45.348587     -128.260727      -40.870541
 H         -46.179741     -127.239021      -39.580368
 H         -46.952690     -125.024086      -42.995132
 H         -47.457657     -124.795448      -41.202240
 H         -43.860958     -126.686699      -41.440514
 H         -43.888180     -126.834145      -39.672470
 H         -45.202847     -123.385437      -41.849743
 H         -44.822552     -124.955658      -42.504025
 H         -43.800510     -124.391357      -40.160374
 H         -45.356468     -124.625404      -39.568237
