20
 generated by VMD
 C         -38.732540     -108.523422      -36.791588
 N         -37.646332     -108.813019      -37.005669
 H         -41.738861     -109.460274      -36.292797
 H         -39.726799     -108.238503      -36.471889
 C         -41.476063     -110.098114      -35.341496
 C         -40.926155     -111.404495      -35.629192
 C         -42.485004     -109.992416      -34.247574
 C         -40.503605     -112.229721      -34.395634
 C         -42.057480     -110.693100      -32.958714
 C         -41.590519     -112.158142      -33.181561
 H         -40.017143     -111.192017      -36.238743
 H         -41.593067     -112.033928      -36.154060
 H         -42.951870     -109.008476      -34.033871
 H         -43.447514     -110.558685      -34.633904
 H         -39.561035     -111.710960      -33.991364
 H         -40.309757     -113.208801      -34.645542
 H         -42.914040     -110.481483      -32.259251
 H         -41.148167     -110.084015      -32.481213
 H         -41.162010     -112.599815      -32.379322
 H         -42.366146     -112.908875      -33.421040
