20
 generated by VMD
 C         -70.062050     -181.282074      -63.090565
 N         -71.205292     -181.462997      -63.300377
 H         -67.700317     -181.679031      -61.082191
 H         -69.008827     -181.171997      -63.008030
 C         -66.905243     -180.870438      -60.993244
 C         -65.576752     -181.209778      -60.373222
 C         -67.364738     -179.491440      -60.673714
 C         -64.532310     -180.352966      -60.797344
 C         -66.250366     -178.445114      -60.799419
 C         -64.851250     -178.908234      -60.239689
 H         -65.411232     -182.285614      -60.593040
 H         -65.589828     -181.241699      -59.184181
 H         -68.142464     -179.164734      -61.283020
 H         -67.694641     -179.409332      -59.659374
 H         -64.459351     -180.375778      -61.829037
 H         -63.628246     -180.541855      -60.316238
 H         -66.663681     -177.520737      -60.372089
 H         -66.079262     -178.214203      -61.873444
 H         -64.136345     -178.158966      -60.332211
 H         -64.940720     -179.028458      -59.098213
