20
 generated by VMD
 C         -27.679258      -81.152023      -27.504007
 N         -28.808149      -81.450226      -27.558531
 H         -30.394413      -83.098114      -25.321686
 H         -26.663525      -80.831367      -27.251139
 C         -30.569138      -84.027275      -24.767336
 C         -30.341421      -84.047157      -23.246620
 C         -31.216320      -85.114944      -25.582634
 C         -31.694542      -84.502167      -22.640236
 C         -32.534740      -85.514702      -24.794893
 C         -32.315552      -85.718063      -23.287544
 H         -30.058903      -83.026016      -22.820642
 H         -29.637316      -84.813393      -23.098085
 H         -31.334997      -84.653992      -26.557402
 H         -30.607367      -86.022804      -25.557676
 H         -32.433411      -83.660065      -22.436522
 H         -31.548616      -84.804352      -21.643930
 H         -32.845898      -86.378746      -25.260202
 H         -33.356937      -84.807976      -24.993345
 H         -33.293243      -85.998077      -22.884356
 H         -31.673483      -86.592300      -23.222622
