20
 generated by VMD
 C         -70.551773     -182.108582      -63.818127
 N         -69.536530     -182.639450      -64.003868
 H         -68.774757     -180.633224      -61.956028
 H         -71.463814     -181.621948      -63.576763
 C         -67.856598     -180.541199      -61.319172
 C         -67.194641     -181.886749      -61.050343
 C         -67.261627     -179.369522      -60.600739
 C         -65.746208     -181.922424      -60.908287
 C         -65.801620     -179.420486      -60.808342
 C         -65.228043     -180.623291      -60.175728
 H         -67.430595     -182.547577      -61.911201
 H         -67.590614     -182.407928      -60.244621
 H         -67.752022     -178.560333      -61.289673
 H         -67.556717     -179.199005      -59.564930
 H         -65.168068     -182.008469      -61.917271
 H         -65.370636     -182.726135      -60.167217
 H         -65.509239     -178.500763      -60.317425
 H         -65.530479     -179.309586      -61.833832
 H         -64.117973     -180.462448      -60.318394
 H         -65.433075     -180.798203      -59.192093
