20
 generated by VMD
 C          -1.033896      -13.361135        0.862062
 N          -0.376688      -13.157043        0.012811
 H          -4.588850      -13.150196        1.997125
 H          -5.713180      -13.385207        0.698995
 C          -5.201116      -13.915495        1.501794
 C          -6.227630      -14.410909        2.490849
 C          -4.339107      -15.046671        0.970499
 C          -7.089024      -15.559099        2.036722
 C          -5.205832      -16.216063        0.365492
 C          -6.236856      -16.655687        1.421792
 H          -6.877258      -13.605455        2.746438
 H          -5.793448      -14.628425        3.481070
 H          -3.616477      -14.688479        0.289594
 H          -3.758744      -15.486823        1.696829
 H          -7.848608      -15.267539        1.256433
 H          -7.702867      -15.976240        2.863318
 H          -4.583278      -17.111927        0.171215
 H          -5.665277      -15.909017       -0.617861
 H          -6.889704      -17.480644        1.136925
 H          -5.720270      -17.086946        2.282563
