20
 generated by VMD
 C         -57.865822     -164.417648      -56.658707
 N         -57.240639     -163.534653      -57.180435
 H         -60.496517     -164.025223      -53.868504
 H         -58.364414     -165.270462      -56.163471
 C         -60.935146     -164.821243      -54.490807
 C         -61.828453     -165.758270      -53.781502
 C         -61.263462     -164.405304      -55.913994
 C         -63.253231     -165.175186      -53.712467
 C         -62.712223     -163.939209      -55.987411
 C         -63.788948     -164.776642      -55.170109
 H         -61.431381     -166.002716      -52.799911
 H         -61.872139     -166.773117      -54.231762
 H         -60.498924     -163.621735      -56.059059
 H         -61.058887     -165.197739      -56.572441
 H         -63.194611     -164.250717      -53.144894
 H         -63.906872     -166.000656      -53.373558
 H         -63.055176     -163.822693      -57.070717
 H         -62.863922     -162.896225      -55.759190
 H         -64.776474     -164.094635      -55.064610
 H         -64.039459     -165.692596      -55.860817
