20
 generated by VMD
 C         -21.049837      -52.213417       -9.685264
 N         -21.367235      -52.526005      -10.720378
 H         -19.293774      -49.995102      -11.679253
 H         -20.981146      -52.174965       -8.492354
 C         -18.422037      -50.195942      -12.321677
 C         -17.829569      -51.482841      -12.717693
 C         -17.517250      -49.015793      -12.329201
 C         -16.919943      -51.285973      -13.963119
 C         -16.312696      -49.034637      -13.364390
 C         -15.729954      -50.398739      -13.614980
 H         -18.676428      -52.095520      -13.062326
 H         -17.295088      -51.945816      -11.890260
 H         -18.184320      -48.168827      -12.585255
 H         -17.136456      -48.922283      -11.328214
 H         -17.489307      -50.967880      -14.824325
 H         -16.614483      -52.298489      -14.270149
 H         -15.487493      -48.249596      -13.264873
 H         -16.817287      -48.713924      -14.263795
 H         -15.197980      -50.265076      -14.583470
 H         -15.080931      -50.846249      -12.850472
