20
 generated by VMD
 C         -12.099058      -31.128923       -8.379027
 N         -11.967159      -30.637072       -7.386909
 H         -11.672730      -34.821457       -7.929757
 H         -12.886030      -34.146877       -6.840980
 C         -11.984533      -34.679016       -6.897775
 C         -10.830635      -33.871601       -6.148966
 C         -12.113028      -36.006912       -6.168400
 C         -11.171922      -33.584606       -4.588267
 C         -12.420492      -35.833721       -4.685894
 C         -11.399159      -34.957943       -3.987332
 H         -10.632142      -32.845886       -6.604699
 H          -9.936507      -34.472313       -6.169758
 H         -12.935189      -36.600445       -6.586987
 H         -11.175346      -36.558800       -6.299343
 H         -12.065013      -32.931660       -4.606050
 H         -10.250502      -33.138809       -4.077948
 H         -12.361571      -36.898350       -4.224678
 H         -13.434069      -35.485157       -4.591034
 H         -11.718362      -34.781673       -2.938995
 H         -10.426643      -35.520397       -3.875822
