20
 generated by VMD
 C         -40.035431      -99.506065      -28.727858
 N         -39.203133     -100.057686      -28.107115
 H         -37.509895      -98.831467      -30.375959
 H         -40.585514      -98.907135      -29.423285
 C         -36.527554      -98.401161      -30.721203
 C         -35.822990      -98.790817      -32.060684
 C         -35.465786      -98.205612      -29.648140
 C         -34.600002      -97.869835      -32.422279
 C         -34.312130      -97.206665      -29.942129
 C         -33.519653      -97.786766      -31.241070
 H         -36.590355      -98.724792      -32.787987
 H         -35.521675      -99.874908      -31.902006
 H         -36.065811      -97.857147      -28.823242
 H         -35.096722      -99.232964      -29.414135
 H         -34.951122      -96.808731      -32.604996
 H         -34.085388      -98.274300      -33.296566
 H         -33.593418      -96.989693      -29.187403
 H         -34.697792      -96.209793      -30.127548
 H         -32.670918      -97.132385      -31.652107
 H         -33.062527      -98.717773      -30.988495
