20
 generated by VMD
 C         -78.774529     -207.917847      -76.720589
 N         -78.660667     -207.994644      -75.591560
 H         -79.167686     -210.052933      -73.442757
 H         -78.690170     -207.760849      -77.740891
 C         -78.718102     -210.221649      -72.478905
 C         -77.393394     -209.501785      -72.288239
 C         -79.121918     -211.311768      -71.581284
 C         -77.188690     -209.192780      -70.825500
 C         -78.699524     -211.146301      -70.012985
 C         -77.278702     -210.482559      -69.929527
 H         -77.151024     -208.726288      -73.049347
 H         -76.677055     -210.325958      -72.582710
 H         -80.183380     -211.399719      -71.470444
 H         -78.781189     -212.279907      -72.046967
 H         -77.898567     -208.464661      -70.410667
 H         -76.231026     -208.701004      -70.622185
 H         -78.741203     -212.225922      -69.618706
 H         -79.306923     -210.501938      -69.433022
 H         -76.879021     -210.386368      -68.886971
 H         -76.476555     -211.062698      -70.507492
