20
 generated by VMD
 C         -38.734001      -99.033997      -27.208538
 N         -37.822617      -99.281265      -26.562305
 H         -37.285122      -97.298088      -30.167952
 H         -39.762302      -98.949348      -27.697104
 C         -36.260818      -96.971870      -30.548079
 C         -35.607029      -97.476791      -31.833809
 C         -35.296059      -96.477417      -29.461546
 C         -34.249626      -96.952614      -32.196026
 C         -34.269497      -95.507484      -30.111872
 C         -33.437294      -96.154839      -31.140764
 H         -36.321072      -97.269875      -32.610744
 H         -35.554771      -98.639107      -31.780190
 H         -35.826092      -96.156738      -28.585649
 H         -34.712811      -97.376343      -29.149414
 H         -34.230598      -96.246574      -33.006294
 H         -33.532837      -97.807190      -32.413925
 H         -33.525227      -95.088280      -29.334263
 H         -34.762775      -94.625137      -30.539225
 H         -32.757076      -95.559502      -31.804495
 H         -32.823639      -96.718567      -30.503094
