20
 generated by VMD
 C         -15.117492      -46.178169       -6.213945
 N         -14.741902      -47.210464       -5.957198
 H         -15.669825      -44.778484       -9.366999
 H         -14.692916      -44.917976      -10.878022
 C         -15.693041      -44.860016      -10.479136
 C         -16.410509      -43.702095      -11.017932
 C         -16.380327      -46.235752      -10.831272
 C         -16.617714      -43.941494      -12.523227
 C         -16.531698      -46.454750      -12.331851
 C         -17.273739      -45.277836      -12.905288
 H         -15.913977      -42.738632      -10.882805
 H         -17.387703      -43.565437      -10.633704
 H         -15.737415      -46.947670      -10.333540
 H         -17.351288      -46.306202      -10.405759
 H         -15.644044      -43.833351      -13.024444
 H         -17.195381      -43.092693      -12.867125
 H         -17.137205      -47.381355      -12.475986
 H         -15.627358      -46.606564      -12.801992
 H         -17.359909      -45.503040      -14.010246
 H         -18.304737      -45.298340      -12.581547
