20
 generated by VMD
 C         -62.536495     -173.930664      -55.325245
 N         -63.667339     -174.143860      -55.124889
 H         -62.554661     -172.524521      -57.936550
 H         -61.494423     -173.667297      -55.386501
 C         -63.088093     -171.650513      -58.266315
 C         -62.874729     -170.253723      -57.606838
 C         -64.051376     -171.940598      -59.400124
 C         -63.780056     -169.114044      -58.313892
 C         -64.627136     -170.711639      -60.041168
 C         -65.026855     -169.589859      -59.068581
 H         -61.848648     -169.862793      -57.691757
 H         -63.156273     -170.186920      -56.562183
 H         -63.640938     -172.669617      -60.272949
 H         -64.993736     -172.472443      -59.080952
 H         -63.152431     -168.546127      -58.975624
 H         -64.159966     -168.552383      -57.554981
 H         -65.574814     -170.945190      -60.588062
 H         -63.838024     -170.310974      -60.802643
 H         -65.539055     -168.724930      -59.514130
 H         -65.718155     -170.058685      -58.365353
