20
 generated by VMD
 C         -30.220057      -92.752914      -25.866198
 N         -31.325247      -92.819275      -25.597097
 H         -32.892494      -90.812607      -26.371908
 H         -29.176208      -92.638779      -25.998919
 C         -33.538521      -90.918594      -27.209078
 C         -34.388977      -92.124733      -27.349993
 C         -33.072590      -90.171219      -28.442139
 C         -35.577618      -91.767075      -28.218605
 C         -34.293331      -89.931358      -29.374123
 C         -35.353584      -90.992241      -29.471180
 H         -34.744785      -92.433884      -26.417398
 H         -33.687317      -92.798935      -27.737873
 H         -32.513992      -89.232620      -28.287020
 H         -32.331795      -90.761147      -28.937933
 H         -36.148182      -91.105080      -27.505821
 H         -36.240017      -92.609253      -28.404661
 H         -33.994461      -89.776901      -30.408739
 H         -34.916142      -89.098625      -29.079027
 H         -36.386440      -90.794304      -29.892595
 H         -34.861523      -91.709465      -30.172413
