20
 generated by VMD
 C         -69.122704     -180.031494      -62.156834
 N         -69.648918     -181.065536      -62.306892
 H         -66.762337     -180.328400      -59.086143
 H         -68.604187     -179.115829      -62.031471
 C         -66.255203     -179.629974      -59.680614
 C         -65.428993     -179.924530      -60.814884
 C         -66.055794     -178.388977      -58.915710
 C         -65.364380     -178.646545      -61.758003
 C         -66.067787     -177.190735      -59.835789
 C         -65.032455     -177.343460      -60.948841
 H         -65.905106     -180.731934      -61.290287
 H         -64.489204     -180.232376      -60.483685
 H         -66.874214     -178.346817      -58.128910
 H         -65.098480     -178.418015      -58.388233
 H         -66.232262     -178.515106      -62.384018
 H         -64.544304     -178.784973      -62.418957
 H         -65.925323     -176.279053      -59.203011
 H         -67.042938     -177.200790      -60.396599
 H         -64.988708     -176.334717      -61.528557
 H         -64.199669     -177.670303      -60.366482
