20
 generated by VMD
 C         -15.119568      -46.027931       -6.818964
 N         -14.672172      -46.942009       -6.387488
 H         -15.432898      -44.368275       -9.219758
 H         -14.626421      -44.655178      -10.667054
 C         -15.631465      -44.577797      -10.281688
 C         -16.414520      -43.460831      -10.926878
 C         -16.220982      -45.965858      -10.503936
 C         -16.652685      -43.925152      -12.350399
 C         -16.391125      -46.398949      -11.987595
 C         -17.231434      -45.294853      -12.628555
 H         -15.895289      -42.497952      -10.937106
 H         -17.413145      -43.288250      -10.492588
 H         -15.517441      -46.645798       -9.908743
 H         -17.215010      -46.133904      -10.041597
 H         -15.643235      -43.888855      -12.773622
 H         -17.259602      -43.159782      -12.844344
 H         -16.964516      -47.386646      -12.029149
 H         -15.449501      -46.537716      -12.536950
 H         -17.188993      -45.572472      -13.679478
 H         -18.220877      -45.308346      -12.260106
