20
 generated by VMD
 C         -11.157204      -32.738907       -8.779166
 N         -11.913823      -33.007710       -9.531215
 H         -12.029406      -33.740810       -6.526364
 H         -12.693067      -34.108944       -4.887208
 C         -12.347031      -34.566216       -5.840913
 C         -11.159434      -35.506382       -5.644751
 C         -13.550371      -35.334034       -6.420756
 C         -11.451381      -36.893353       -4.968100
 C         -13.860900      -36.606876       -5.640499
 C         -12.646969      -37.532040       -5.697269
 H         -10.336750      -35.015526       -5.087222
 H         -10.618023      -35.721424       -6.620030
 H         -14.450891      -34.706463       -6.376545
 H         -13.454089      -35.713455       -7.407474
 H         -11.457251      -36.851524       -3.858304
 H         -10.564716      -37.509830       -5.085157
 H         -14.710632      -37.139687       -6.132931
 H         -14.218252      -36.410000       -4.621755
 H         -12.911660      -38.485607       -5.225245
 H         -12.461292      -37.777431       -6.792414
