20
 generated by VMD
 C         -30.809755      -77.924126      -25.608669
 N         -31.767782      -77.744591      -26.209242
 H         -29.089342      -78.106873      -22.797543
 H         -29.960798      -78.198090      -25.077465
 C         -28.929379      -79.143738      -23.165234
 C         -27.469151      -79.348259      -23.375477
 C         -29.736523      -80.263237      -22.663149
 C         -26.757023      -79.786545      -22.097034
 C         -29.132675      -80.901108      -21.407932
 C         -27.600760      -81.114685      -21.563852
 H         -27.033880      -78.444572      -23.784056
 H         -27.243546      -79.955307      -24.282885
 H         -30.714493      -80.019295      -22.390123
 H         -29.791512      -81.072357      -23.514553
 H         -26.919443      -78.927719      -21.472088
 H         -25.707129      -80.056862      -22.207565
 H         -29.587744      -81.856209      -20.969618
 H         -29.263798      -80.203636      -20.558920
 H         -27.234217      -81.433723      -20.561022
 H         -27.429873      -81.892799      -22.248901
