20
 generated by VMD
 C         -10.818991      -25.763834       -0.846763
 N         -11.039151      -24.692131       -0.586672
 H          -6.933434      -25.699722       -0.925301
 H          -8.580613      -25.431196       -1.450030
 C          -7.537603      -25.298969       -1.747176
 C          -7.222231      -26.186918       -2.986225
 C          -7.149037      -23.839914       -1.996028
 C          -7.838078      -25.534712       -4.250461
 C          -7.777013      -23.209808       -3.315210
 C          -7.433788      -24.086660       -4.466694
 H          -7.787168      -27.106604       -2.881595
 H          -6.083394      -26.392023       -3.087189
 H          -7.551994      -23.301559       -1.118901
 H          -6.076454      -23.721516       -2.027049
 H          -8.923460      -25.603605       -4.180475
 H          -7.462157      -26.096930       -5.081165
 H          -7.369757      -22.186378       -3.434974
 H          -8.860537      -23.041895       -3.203774
 H          -7.877701      -23.814884       -5.446436
 H          -6.370578      -24.009432       -4.710654
