20
 generated by VMD
 C         -68.971909     -180.994583      -61.227554
 N         -69.949135     -180.753220      -60.634083
 H         -67.300690     -178.435379      -59.354893
 H         -68.081772     -181.311157      -61.749630
 C         -66.365059     -177.965118      -59.804615
 C         -65.824524     -178.093246      -61.216396
 C         -65.378487     -177.466721      -58.801270
 C         -64.976440     -176.919098      -61.757565
 C         -64.693962     -176.135620      -59.306301
 C         -64.048561     -176.259964      -60.734428
 H         -66.710220     -178.339325      -61.824741
 H         -65.295731     -179.047165      -61.140648
 H         -65.791252     -177.216629      -57.818829
 H         -64.600021     -178.202972      -58.673725
 H         -65.580177     -176.184647      -62.178356
 H         -64.317238     -177.415802      -62.474876
 H         -63.879124     -176.000305      -58.595699
 H         -65.279594     -175.211578      -59.398277
 H         -63.671520     -175.271988      -60.963379
 H         -63.222878     -176.869522      -60.531132
