20
 generated by VMD
 C         -79.467041     -206.796616      -74.601578
 N         -80.224571     -207.631882      -74.405701
 H         -76.846413     -207.552750      -73.326691
 H         -78.774902     -205.928894      -74.590195
 C         -76.767929     -207.889755      -72.284294
 C         -75.669769     -207.233994      -71.480354
 C         -77.751717     -208.777817      -71.584358
 C         -75.644066     -207.499069      -69.908989
 C         -78.007675     -208.505188      -70.140572
 C         -76.668938     -208.513000      -69.403839
 H         -75.469948     -206.179550      -71.801460
 H         -74.806068     -207.877548      -71.712486
 H         -78.609901     -208.801941      -72.215248
 H         -77.367569     -209.804367      -71.571938
 H         -75.873123     -206.575119      -69.329193
 H         -74.707893     -207.791504      -69.417023
 H         -78.690186     -209.243896      -69.796341
 H         -78.587555     -207.550690      -70.191628
 H         -76.728928     -208.430344      -68.270332
 H         -76.186462     -209.481552      -69.391251
