20
 generated by VMD
 C         -20.427866      -61.468109      -16.970259
 N         -19.390099      -61.085400      -17.232454
 H         -21.704281      -64.965775      -16.835155
 H         -21.428169      -61.802532      -16.474257
 C         -22.741125      -64.824654      -17.107714
 C         -23.057299      -64.247444      -18.449211
 C         -23.746243      -65.067947      -15.978019
 C         -24.465528      -64.595985      -18.823412
 C         -25.125689      -65.442963      -16.455677
 C         -25.520144      -64.508064      -17.579891
 H         -22.350559      -64.551010      -19.191368
 H         -22.871424      -63.234962      -18.454077
 H         -23.378813      -65.895248      -15.344490
 H         -23.681297      -64.161591      -15.504622
 H         -24.453213      -65.611122      -19.151247
 H         -24.779688      -63.844921      -19.605633
 H         -25.810131      -65.539146      -15.599319
 H         -25.051073      -66.418625      -16.950968
 H         -26.396109      -65.035133      -18.060905
 H         -25.659624      -63.455917      -17.326862
