20
 generated by VMD
 C          -3.599499      -20.057194        3.388467
 N          -4.065340      -19.112656        3.024386
 H          -5.311494      -19.645922        0.005218
 H          -6.090198      -21.091150       -0.603195
 C          -6.045515      -20.005735       -0.719849
 C          -5.699826      -19.533100       -2.175456
 C          -7.387957      -19.441753       -0.281807
 C          -6.832560      -19.768911       -3.208303
 C          -8.448704      -19.651943       -1.350780
 C          -8.112747      -19.037271       -2.734220
 H          -4.856945      -20.108912       -2.490117
 H          -5.445394      -18.416422       -2.053556
 H          -7.742559      -20.070543        0.568778
 H          -7.270957      -18.377649       -0.110956
 H          -7.039760      -20.797220       -3.302095
 H          -6.444705      -19.416542       -4.144794
 H          -9.339468      -19.159878       -0.974635
 H          -8.699852      -20.713911       -1.494710
 H          -8.926850      -19.338745       -3.423334
 H          -8.029260      -17.928093       -2.588626
