20
 generated by VMD
 C         -58.420704     -160.028809      -57.020336
 N         -58.603287     -159.885757      -58.183933
 H         -58.661556     -162.929474      -54.829945
 H         -58.354179     -160.166412      -55.938053
 C         -59.515015     -162.897110      -54.147602
 C         -59.344894     -163.016647      -52.738937
 C         -60.904625     -162.864182      -54.668301
 C         -60.314953     -162.036789      -52.033539
 C         -62.078056     -162.195190      -53.848923
 C         -61.743523     -162.289749      -52.342518
 H         -58.300648     -162.808060      -52.439907
 H         -59.406155     -164.146942      -52.371086
 H         -60.866459     -162.559738      -55.716236
 H         -61.221176     -163.905075      -54.728138
 H         -60.036041     -160.936844      -52.388874
 H         -60.044380     -162.161850      -50.994549
 H         -63.037937     -162.626602      -54.113056
 H         -62.095242     -161.152710      -53.866467
 H         -62.236641     -161.447174      -51.857746
 H         -62.207394     -163.218445      -51.831173
