20
 generated by VMD
 C         -58.785480     -151.988571      -48.997795
 N         -59.187160     -152.185471      -50.065395
 H         -56.370010     -150.501740      -48.345913
 H         -58.537876     -151.694504      -48.021828
 C         -55.664612     -150.153732      -49.050484
 C         -54.654613     -151.101471      -49.729340
 C         -55.312763     -148.721924      -49.039112
 C         -54.157730     -150.685699      -51.038052
 C         -54.783886     -148.361572      -50.570065
 C         -53.678249     -149.302216      -51.058132
 H         -55.094765     -152.139099      -49.786087
 H         -53.952732     -151.155075      -48.963551
 H         -56.160168     -148.046097      -48.999584
 H         -54.490387     -148.417419      -48.330776
 H         -54.847393     -151.025299      -51.820473
 H         -53.231171     -151.256073      -51.282299
 H         -54.290005     -147.336029      -50.622368
 H         -55.592361     -148.437347      -51.241322
 H         -53.456799     -149.086700      -52.045258
 H         -52.770386     -149.213196      -50.365143
