20
 generated by VMD
 C         -28.071861      -72.612900      -18.031063
 N         -28.250734      -73.587746      -17.457827
 H         -25.394173      -71.399475      -18.712767
 H         -27.681072      -71.602669      -18.507389
 C         -25.289291      -71.430969      -19.781157
 C         -24.479256      -72.427040      -20.543453
 C         -25.774406      -70.281708      -20.486301
 C         -25.131765      -72.837601      -21.971600
 C         -26.456202      -70.743233      -21.639435
 C         -25.547422      -71.477203      -22.581276
 H         -24.216249      -73.417252      -19.999886
 H         -23.528086      -71.906189      -20.795752
 H         -26.538935      -69.763412      -19.929195
 H         -25.029396      -69.558754      -20.848169
 H         -26.057768      -73.351471      -21.719460
 H         -24.434809      -73.478416      -22.515209
 H         -26.788452      -69.880066      -22.312687
 H         -27.394659      -71.347656      -21.322321
 H         -26.092527      -71.558769      -23.484169
 H         -24.632120      -71.026413      -22.901648
