20
 generated by VMD
 C         -50.774044     -129.778000      -46.182632
 N         -50.868446     -130.275223      -45.186546
 H         -48.073429     -131.798935      -44.400349
 H         -50.943752     -129.620377      -47.197281
 C         -47.845928     -131.848145      -43.356392
 C         -48.186691     -133.039978      -42.542755
 C         -48.010796     -130.597351      -42.655876
 C         -47.706547     -133.048203      -41.092506
 C         -47.361565     -130.531311      -41.201439
 C         -47.934944     -131.708237      -40.355255
 H         -47.867710     -133.985626      -43.032177
 H         -49.311390     -133.079254      -42.510181
 H         -47.586552     -129.780045      -43.308868
 H         -49.061565     -130.385330      -42.617218
 H         -46.582806     -133.244843      -41.094234
 H         -48.281425     -133.832520      -40.544357
 H         -47.684692     -129.530029      -40.957905
 H         -46.271107     -130.585587      -41.352917
 H         -47.703411     -131.755005      -39.251381
 H         -48.951725     -131.386978      -40.296509
