20
 generated by VMD
 C         -19.561890      -62.310894      -17.632767
 N         -20.068445      -62.161449      -16.583693
 H         -22.083124      -64.394028      -16.619434
 H         -18.877329      -62.248447      -18.448835
 C         -23.095106      -64.634369      -17.013508
 C         -23.530710      -64.169655      -18.414164
 C         -24.132719      -65.238022      -16.217766
 C         -24.581926      -65.122910      -19.051247
 C         -25.245640      -66.077110      -16.901140
 C         -25.735313      -65.437515      -18.176561
 H         -22.615896      -64.223274      -19.100513
 H         -23.924299      -63.088318      -18.315126
 H         -23.694136      -65.783920      -15.469240
 H         -24.688513      -64.385788      -15.811275
 H         -24.079596      -66.039444      -19.384407
 H         -24.812395      -64.628777      -20.040792
 H         -26.086159      -66.027328      -16.215782
 H         -24.845226      -67.102875      -16.964680
 H         -26.521622      -65.972763      -18.696846
 H         -26.248531      -64.430649      -17.949848
