20
 generated by VMD
 C         -38.902813     -109.800140      -36.054996
 N         -37.932392     -109.157669      -36.116615
 H         -42.136349     -110.226013      -36.937981
 H         -39.871365     -110.256325      -35.823811
 C         -41.816479     -110.832603      -36.076191
 C         -41.782909     -112.345154      -36.144627
 C         -42.381649     -110.161270      -34.774250
 C         -40.945286     -112.840027      -34.908188
 C         -41.796463     -110.832977      -33.541641
 C         -41.568054     -112.355263      -33.578514
 H         -41.285469     -112.592705      -37.075275
 H         -42.814724     -112.734505      -36.168797
 H         -42.034012     -109.110970      -34.863869
 H         -43.444553     -110.195549      -34.902176
 H         -40.063828     -112.307838      -34.916660
 H         -40.743973     -113.961357      -34.804607
 H         -42.333870     -110.524132      -32.581623
 H         -40.734310     -110.391380      -33.491718
 H         -40.769947     -112.715187      -32.839493
 H         -42.361301     -112.938133      -33.332325
