20
 generated by VMD
 C         -62.186832     -172.382019      -54.934158
 N         -61.260105     -172.917740      -55.268414
 H         -61.852245     -170.910889      -58.547829
 H         -62.988876     -171.740784      -54.705135
 C         -62.624054     -170.256622      -58.088100
 C         -62.391472     -168.737686      -57.943913
 C         -63.975380     -170.909576      -58.089314
 C         -63.554573     -167.932480      -58.498207
 C         -65.085869     -170.014450      -58.640621
 C         -64.830292     -168.618332      -58.077835
 H         -61.414040     -168.424515      -58.557892
 H         -62.188560     -168.448593      -56.982674
 H         -64.057938     -171.833450      -58.780617
 H         -64.238319     -171.309906      -57.059010
 H         -63.490765     -167.918961      -59.593063
 H         -63.556061     -166.823074      -58.128761
 H         -66.063972     -170.369308      -58.364796
 H         -65.053604     -169.947678      -59.659092
 H         -65.628609     -168.022217      -58.688759
 H         -65.166824     -168.654892      -57.053719
