20
 generated by VMD
 C         -67.294487     -189.636429      -66.507912
 N         -66.276352     -189.671570      -67.073563
 H         -70.076614     -190.508881      -65.611191
 H         -68.246140     -189.457886      -66.085938
 C         -70.827309     -190.160049      -64.961082
 C         -71.994225     -190.872513      -64.486465
 C         -70.439590     -188.984695      -64.256027
 C         -73.190811     -190.048843      -63.926926
 C         -71.538757     -187.986664      -63.860844
 C         -72.706451     -188.795151      -63.216843
 H         -71.705048     -191.524063      -63.763824
 H         -72.294518     -191.412521      -65.346085
 H         -69.913437     -189.332260      -63.313690
 H         -69.788177     -188.404266      -64.924866
 H         -73.867851     -190.699112      -63.288986
 H         -73.859947     -189.748566      -64.689751
 H         -71.892685     -187.447876      -64.761108
 H         -70.974197     -187.230728      -63.200283
 H         -72.340469     -189.060242      -62.262985
 H         -73.608559     -188.241699      -62.936340
