20
 generated by VMD
 C         -60.268364     -156.287582      -56.067154
 N         -60.776054     -155.286652      -55.775852
 H         -59.695644     -158.039154      -53.123856
 H         -59.792179     -157.253052      -56.207794
 C         -58.898750     -157.905685      -52.428646
 C         -58.106354     -156.592743      -52.399540
 C         -58.208473     -159.170166      -51.906532
 C         -57.209938     -156.419952      -51.126823
 C         -57.407963     -158.856979      -50.517590
 C         -56.428768     -157.683731      -50.712933
 H         -58.636383     -155.661514      -52.443920
 H         -57.536758     -156.408920      -53.361576
 H         -58.863747     -159.909073      -51.620064
 H         -57.625084     -159.604904      -52.730621
 H         -58.000790     -156.207336      -50.329018
 H         -56.546673     -155.571518      -51.230991
 H         -56.813808     -159.680740      -50.368683
 H         -58.039913     -158.587158      -49.695938
 H         -56.004791     -157.554321      -49.665306
 H         -55.738537     -157.999634      -51.473694
