20
 generated by VMD
 C         -69.920067     -184.455124      -66.195175
 N         -68.998947     -184.224121      -66.892761
 H         -69.669846     -183.556595      -63.271954
 H         -70.840317     -184.613068      -65.575989
 C         -68.940697     -183.641998      -62.493881
 C         -69.260124     -184.717636      -61.441654
 C         -68.118874     -182.473740      -62.134937
 C         -68.119408     -184.899292      -60.477806
 C         -66.838051     -182.882065      -61.494751
 C         -67.325523     -183.639816      -60.194733
 H         -69.507095     -185.653809      -62.018269
 H         -70.220535     -184.403580      -61.011177
 H         -67.912064     -181.891006      -63.023373
 H         -68.716713     -181.841568      -61.452385
 H         -67.444939     -185.614258      -61.064678
 H         -68.504135     -185.506943      -59.642330
 H         -66.105125     -182.114243      -61.193668
 H         -66.243195     -183.506485      -62.126373
 H         -66.430244     -183.948700      -59.727779
 H         -67.811539     -182.868637      -59.467819
