20
 generated by VMD
 C         -28.339840      -87.026054      -27.087389
 N         -27.584305      -87.019684      -26.160259
 H         -31.135962      -88.245926      -25.122683
 H         -28.878727      -87.097290      -28.024164
 C         -32.079098      -88.162468      -25.677687
 C         -33.296585      -88.373207      -24.857738
 C         -32.330982      -88.362717      -27.156527
 C         -34.583111      -87.696869      -25.321848
 C         -33.507961      -87.440216      -27.552845
 C         -34.776772      -87.892166      -26.799597
 H         -32.877705      -88.065216      -23.880260
 H         -33.516399      -89.432945      -24.694889
 H         -31.418447      -88.055496      -27.648928
 H         -32.348728      -89.435524      -27.303110
 H         -34.428532      -86.661133      -25.050972
 H         -35.369190      -88.176102      -24.771008
 H         -33.726566      -87.334755      -28.622047
 H         -33.494118      -86.400658      -27.217306
 H         -35.673088      -87.339035      -27.144901
 H         -34.926373      -88.983238      -26.997759
