20
 generated by VMD
 C         -59.995480     -169.681305      -55.429379
 N         -59.597149     -168.673553      -55.111729
 H         -62.924950     -170.423553      -56.508774
 H         -60.412655     -170.562576      -55.881065
 C         -63.325684     -169.488449      -56.872841
 C         -62.723705     -168.979614      -58.122406
 C         -63.582458     -168.387192      -55.814686
 C         -63.428593     -167.709000      -58.636871
 C         -64.229828     -167.139114      -56.355255
 C         -63.445065     -166.612808      -57.591282
 H         -62.987076     -169.825333      -58.830227
 H         -61.660992     -168.723129      -58.143017
 H         -64.300995     -168.878891      -55.120346
 H         -62.635918     -168.255219      -55.272415
 H         -64.411423     -167.817886      -59.108238
 H         -62.852448     -167.308792      -59.508602
 H         -64.161118     -166.358429      -55.647896
 H         -65.242836     -167.357330      -56.612259
 H         -63.918243     -165.629562      -57.800781
 H         -62.382111     -166.296646      -57.269947
