20
 generated by VMD
 C         -62.683792     -174.551041      -54.746632
 N         -63.369801     -174.119949      -55.591599
 H         -63.503418     -173.014740      -57.718529
 H         -62.125488     -174.853027      -53.877193
 C         -63.511940     -172.092880      -58.339760
 C         -63.626720     -170.800369      -57.507355
 C         -64.216476     -172.073334      -59.683178
 C         -63.793621     -169.512054      -58.359207
 C         -64.413078     -170.697220      -60.311012
 C         -64.793060     -169.560638      -59.400047
 H         -62.747955     -170.522934      -56.790432
 H         -64.449303     -170.783554      -56.872032
 H         -63.651894     -172.548767      -60.456860
 H         -65.250053     -172.326248      -59.510242
 H         -62.768360     -169.311905      -58.820702
 H         -63.957367     -168.585587      -57.710751
 H         -65.144531     -170.791031      -61.118546
 H         -63.476906     -170.504913      -60.941334
 H         -64.802612     -168.615326      -60.027893
 H         -65.826637     -169.677521      -58.976837
