20
 generated by VMD
 C         -50.262482     -145.203308      -45.092205
 N         -49.951523     -144.785477      -44.051693
 H         -52.994892     -143.294296      -45.896557
 H         -50.733562     -145.634247      -45.928711
 C         -53.381386     -143.006638      -46.886196
 C         -52.586609     -142.823181      -48.018711
 C         -54.663300     -142.128448      -46.786381
 C         -53.361263     -143.107483      -49.309814
 C         -55.430347     -142.189682      -48.191151
 C         -54.547611     -142.188019      -49.489086
 H         -51.809845     -143.465103      -47.802349
 H         -51.979656     -141.923935      -48.060760
 H         -55.245895     -142.555771      -45.993210
 H         -54.277039     -141.120712      -46.749142
 H         -53.759697     -144.054916      -49.343658
 H         -52.600716     -143.001465      -50.012188
 H         -56.303417     -141.585037      -48.209698
 H         -55.911209     -143.201477      -48.097458
 H         -55.171078     -142.271332      -50.349056
 H         -54.192768     -141.229553      -49.677624
