20
 generated by VMD
 C         -12.697371      -30.112841       -8.329700
 N         -13.568124      -30.706511       -7.957959
 H         -11.029183      -30.637989       -5.193700
 H         -10.705859      -31.426134       -3.572622
 C         -10.800232      -31.566193       -4.611091
 C          -9.480278      -32.157906       -5.034533
 C         -11.990509      -32.576336       -4.823825
 C          -9.169065      -33.449429       -4.367647
 C         -11.638712      -33.900318       -4.112380
 C         -10.309682      -34.452454       -4.603968
 H          -8.646957      -31.492649       -4.837914
 H          -9.428433      -32.257252       -6.146675
 H         -12.954157      -32.217789       -4.402173
 H         -12.171569      -32.762974       -5.891128
 H          -9.052671      -33.328491       -3.235356
 H          -8.160070      -33.832623       -4.703147
 H         -12.453652      -34.636974       -4.111370
 H         -11.518007      -33.689960       -3.009155
 H         -10.129954      -35.398232       -4.070466
 H         -10.434674      -34.678249       -5.685447
