20
 generated by VMD
 C         -59.821896     -152.092133      -49.872070
 N         -58.744122     -152.482437      -50.156685
 H         -56.641445     -150.984924      -48.515957
 H         -60.769855     -151.680511      -49.454987
 C         -55.772709     -150.667725      -49.034908
 C         -54.792046     -151.625900      -49.727451
 C         -55.352005     -149.126343      -49.135853
 C         -54.258728     -151.213318      -51.072933
 C         -54.851086     -148.710526      -50.658737
 C         -53.827400     -149.793991      -51.104824
 H         -55.367813     -152.557327      -49.801464
 H         -53.924725     -151.898407      -49.085716
 H         -56.131104     -148.427155      -48.703453
 H         -54.456608     -148.933640      -48.513290
 H         -54.974449     -151.277222      -51.884132
 H         -53.429947     -151.921661      -51.319618
 H         -54.184757     -147.701492      -50.551899
 H         -55.647499     -148.606735      -51.334175
 H         -53.385384     -149.543915      -52.070553
 H         -53.041576     -149.642181      -50.444092
