20
 generated by VMD
 C         -48.527752     -133.356659      -47.277493
 N         -48.162457     -133.258789      -48.308159
 H         -48.973293     -134.249771      -44.180195
 H         -48.976250     -133.669571      -46.331512
 C         -49.739441     -134.944901      -43.813480
 C         -49.996223     -136.223221      -44.460613
 C         -50.811497     -134.437225      -42.827843
 C         -50.387089     -137.320892      -43.408348
 C         -51.126915     -135.616379      -41.777832
 C         -51.553265     -136.867874      -42.610092
 H         -49.204529     -136.699036      -45.093658
 H         -50.871758     -136.135773      -45.119926
 H         -50.462605     -133.591690      -42.296188
 H         -51.792358     -134.118820      -43.274326
 H         -49.498398     -137.520721      -42.748672
 H         -50.747925     -138.213028      -43.809978
 H         -51.934696     -135.216919      -41.149231
 H         -50.222424     -135.688522      -41.222088
 H         -51.820896     -137.621155      -41.887470
 H         -52.651836     -136.832581      -43.090378
