20
 generated by VMD
 C         -49.983437     -131.296448      -46.611996
 N         -50.288708     -131.654007      -47.701595
 H         -48.240936     -132.094055      -44.076496
 H         -49.624626     -131.231750      -45.564129
 C         -48.940742     -132.229401      -43.229095
 C         -49.690090     -133.565323      -43.231316
 C         -48.758171     -131.674347      -41.832943
 C         -48.794842     -134.578781      -42.375019
 C         -47.977921     -132.656982      -40.928101
 C         -48.526943     -134.104248      -40.956287
 H         -49.842419     -133.908997      -44.229584
 H         -50.676113     -133.294403      -42.853817
 H         -48.208359     -130.750854      -41.930149
 H         -49.685017     -131.318878      -41.516026
 H         -47.883247     -134.964005      -42.940620
 H         -49.485214     -135.489243      -42.234505
 H         -47.917957     -132.246170      -39.938736
 H         -46.904743     -132.772476      -41.191856
 H         -47.716892     -134.805817      -40.560379
 H         -49.481850     -134.156494      -40.444920
