20
 generated by VMD
 C         -21.278942      -56.196011      -17.423813
 N         -20.798531      -55.273941      -17.890968
 H         -23.458984      -58.851841      -15.381125
 H         -21.964022      -56.907757      -16.738113
 C         -22.465311      -59.256676      -15.219135
 C         -21.834303      -58.976521      -13.899224
 C         -21.661602      -60.111103      -16.260450
 C         -20.929764      -60.084877      -13.302587
 C         -20.379654      -60.675152      -15.688019
 C         -20.536083      -61.174774      -14.234276
 H         -22.602873      -58.838627      -13.115003
 H         -21.299423      -58.073448      -14.099611
 H         -22.337915      -60.906357      -16.590105
 H         -21.507498      -59.552128      -17.175436
 H         -21.463978      -60.528320      -12.396207
 H         -20.056393      -59.494526      -12.964744
 H         -19.551813      -59.997852      -15.810364
 H         -20.089966      -61.550842      -16.259584
 H         -21.227661      -62.023064      -14.250545
 H         -19.575596      -61.581490      -14.010713
