20
 generated by VMD
 C         -79.009140     -206.651779      -75.415169
 N         -79.532806     -207.113174      -76.383545
 H         -78.520996     -209.889297      -73.129150
 H         -78.598633     -206.451904      -74.389900
 C         -77.954575     -209.870270      -72.209320
 C         -76.819725     -208.964294      -72.055534
 C         -78.204788     -210.904404      -71.197014
 C         -76.701225     -208.370850      -70.574585
 C         -78.275040     -210.299484      -69.844017
 C         -76.946976     -209.400284      -69.480110
 H         -76.868851     -208.129150      -72.767166
 H         -75.862907     -209.495102      -72.256920
 H         -79.198555     -211.117935      -71.586952
 H         -77.563026     -211.780807      -71.200073
 H         -77.507431     -207.632690      -70.485016
 H         -75.820602     -207.755096      -70.365028
 H         -78.499229     -210.928589      -68.939293
 H         -79.055611     -209.598831      -69.928864
 H         -76.899651     -208.830429      -68.535988
 H         -76.166512     -210.161133      -69.340553
