20
 generated by VMD
 C         -32.489922      -92.927116      -25.885862
 N         -32.581440      -94.026932      -25.607994
 H         -33.795181      -94.810043      -28.662674
 H         -32.525665      -91.904655      -26.122885
 C         -34.245586      -93.889084      -29.053263
 C         -35.370472      -93.461700      -28.169983
 C         -33.686020      -93.116379      -30.174128
 C         -35.196980      -91.994942      -27.849817
 C         -33.483829      -91.694939      -29.752310
 C         -34.825432      -91.207428      -29.153090
 H         -35.166031      -94.151466      -27.281868
 H         -36.360878      -93.687599      -28.586599
 H         -32.811600      -93.536316      -30.644581
 H         -34.455551      -93.264206      -30.948420
 H         -34.523132      -91.676613      -27.022165
 H         -36.069752      -91.521576      -27.586229
 H         -33.265553      -91.117455      -30.665396
 H         -32.637321      -91.564919      -29.093588
 H         -34.490707      -90.182343      -28.983620
 H         -35.737679      -91.343597      -29.879213
