20
 generated by VMD
 C         -51.347446     -127.724998      -41.389359
 N         -51.876266     -128.681915      -41.871838
 H         -47.523163     -128.084946      -40.832825
 H         -50.713211     -126.871811      -41.182812
 C         -46.593773     -127.405022      -40.704048
 C         -45.324310     -127.703430      -40.119442
 C         -46.730095     -125.944176      -41.140713
 C         -43.999954     -127.127968      -40.760918
 C         -45.503487     -125.370491      -41.889923
 C         -44.201431     -125.679199      -41.177666
 H         -45.410744     -128.835434      -40.009743
 H         -45.461399     -127.409576      -39.090576
 H         -47.614021     -126.055748      -41.886337
 H         -46.916267     -125.375732      -40.193039
 H         -43.792168     -127.713249      -41.665039
 H         -43.186069     -127.159027      -40.005547
 H         -45.825680     -124.364090      -41.811188
 H         -45.551147     -125.667519      -42.966576
 H         -43.402431     -125.185883      -41.686348
 H         -44.357502     -125.129417      -40.244320
