20
 generated by VMD
 C         -30.879778      -75.011223      -22.654358
 N         -31.235949      -75.550812      -21.712881
 H         -28.778757      -77.152458      -21.747349
 H         -30.612879      -74.197151      -23.429678
 C         -27.778538      -77.021736      -21.395277
 C         -26.689211      -77.703583      -22.130995
 C         -27.371628      -75.804123      -20.644444
 C         -25.820808      -76.770462      -22.938848
 C         -26.474623      -74.888916      -21.513397
 C         -25.365492      -75.574516      -22.134678
 H         -27.218781      -78.550659      -22.813545
 H         -25.953253      -78.355232      -21.488611
 H         -28.337656      -75.304169      -20.357540
 H         -26.849863      -76.159271      -19.790472
 H         -26.373838      -76.421448      -23.850174
 H         -24.971956      -77.390984      -23.264448
 H         -26.175409      -74.046532      -20.857279
 H         -27.143950      -74.413666      -22.317356
 H         -24.942608      -74.828720      -22.836479
 H         -24.458202      -75.618416      -21.446484
