20
 generated by VMD
 C         -39.428333     -105.580162      -37.148697
 N         -40.604618     -105.541817      -37.136002
 H         -39.332520     -107.629761      -35.066189
 H         -38.353447     -105.709595      -37.253571
 C         -39.476086     -108.391800      -34.280853
 C         -38.378376     -108.704575      -33.361725
 C         -40.621426     -109.458199      -34.248436
 C         -38.972740     -108.792320      -31.941439
 C         -41.145123     -109.395615      -32.858631
 C         -40.136559     -109.729370      -31.792559
 H         -37.571064     -107.841125      -33.294357
 H         -37.845631     -109.680656      -33.548035
 H         -41.426708     -109.306778      -34.902229
 H         -40.229614     -110.469734      -34.423977
 H         -39.103405     -107.794884      -31.621578
 H         -38.205151     -109.260178      -31.346006
 H         -41.892258     -110.246147      -32.720612
 H         -41.747967     -108.504005      -32.648865
 H         -40.581383     -109.565620      -30.697681
 H         -39.757671     -110.716423      -31.807596
