20
 generated by VMD
 C         -61.310078     -156.179855      -55.087955
 N         -60.335026     -155.750519      -55.608391
 H         -59.668346     -156.189941      -51.647282
 H         -62.155270     -156.553452      -54.474903
 C         -58.581131     -156.351685      -51.395386
 C         -57.834698     -155.149826      -51.069786
 C         -57.817795     -157.546143      -51.951462
 C         -56.463867     -155.496078      -50.494610
 C         -56.461876     -157.906723      -51.273331
 C         -55.709019     -156.522354      -51.192162
 H         -58.553215     -154.518799      -50.509975
 H         -57.635609     -154.642044      -52.069859
 H         -58.464447     -158.325455      -51.851673
 H         -57.586483     -157.388855      -53.007607
 H         -56.767742     -155.870331      -49.454060
 H         -55.887718     -154.609512      -50.620327
 H         -55.835869     -158.472382      -51.975067
 H         -56.632389     -158.475220      -50.265381
 H         -54.704388     -156.646484      -50.641392
 H         -55.472054     -156.167114      -52.139606
