20
 generated by VMD
 C         -30.139212      -79.377800      -25.919018
 N         -30.962004      -78.606552      -26.101822
 H         -28.365023      -82.669189      -25.604788
 H         -29.456984      -80.082947      -25.463123
 C         -28.936180      -82.605408      -24.694387
 C         -28.133757      -81.876907      -23.583048
 C         -30.026337      -83.666534      -24.237991
 C         -29.115490      -81.176804      -22.652027
 C         -30.871000      -83.089287      -23.074690
 C         -30.074709      -82.283813      -22.093054
 H         -27.362392      -81.194267      -23.993340
 H         -27.535910      -82.472893      -22.981705
 H         -30.786951      -84.099319      -24.980576
 H         -29.450794      -84.591522      -23.895237
 H         -29.776342      -80.505730      -23.045607
 H         -28.570679      -80.617455      -21.860250
 H         -31.350840      -84.039330      -22.530981
 H         -31.710930      -82.467255      -23.411587
 H         -30.806269      -81.906166      -21.253168
 H         -29.380259      -82.939201      -21.462444
