20
 generated by VMD
 C          -1.635557      -13.100940        0.663745
 N          -0.752998      -13.791070        0.586942
 H          -3.893904      -14.356388        1.917444
 H          -4.784539      -14.176551        0.351127
 C          -4.736245      -14.770641        1.324824
 C          -6.031170      -14.708656        2.173990
 C          -4.411520      -16.184212        0.998736
 C          -7.212123      -15.370941        1.347410
 C          -5.498824      -16.906919        0.275252
 C          -6.806895      -16.771826        1.030687
 H          -6.278300      -13.675905        2.426284
 H          -5.966559      -15.236188        3.099220
 H          -3.508454      -16.233595        0.398733
 H          -4.075668      -16.719652        1.843626
 H          -7.474099      -14.814710        0.402035
 H          -8.153621      -15.392576        1.969322
 H          -5.261582      -17.997272        0.112757
 H          -5.655925      -16.563269       -0.774891
 H          -7.582236      -17.396872        0.616037
 H          -6.550054      -17.285578        1.980448
