20
 generated by VMD
 C         -58.821217     -161.011002      -56.721657
 N         -58.562016     -160.102386      -57.300426
 H         -58.888092     -163.880905      -54.974453
 H         -59.116234     -161.852661      -56.111893
 C         -59.721066     -163.475861      -54.426865
 C         -59.614098     -163.339233      -52.929005
 C         -61.113686     -163.411270      -55.009335
 C         -60.355904     -162.059616      -52.449226
 C         -61.952396     -162.393646      -54.343464
 C         -61.840778     -162.297165      -52.815899
 H         -58.565758     -163.158539      -52.714081
 H         -59.925518     -164.149185      -52.338474
 H         -61.053459     -163.147995      -56.129135
 H         -61.515423     -164.426483      -55.077805
 H         -59.941380     -161.115189      -52.832836
 H         -60.327278     -162.080582      -51.291702
 H         -63.019444     -162.559036      -54.471130
 H         -61.595894     -161.481552      -54.747990
 H         -62.594727     -161.562729      -52.454201
 H         -62.264767     -163.209885      -52.453991
