20
 generated by VMD
 C         -78.735809     -209.555603      -77.308746
 N         -79.038284     -209.359390      -76.244125
 H         -78.009377     -210.242371      -73.607544
 H         -78.440666     -209.787079      -78.329712
 C         -78.451347     -210.827591      -72.793381
 C         -77.374062     -211.233215      -71.725533
 C         -79.458969     -211.899902      -73.048347
 C         -78.014244     -211.873947      -70.460335
 C         -80.129166     -212.154327      -71.653755
 C         -79.095444     -212.845963      -70.748177
 H         -76.738609     -210.415344      -71.558022
 H         -76.656815     -211.938873      -72.102745
 H         -80.202759     -211.356735      -73.742615
 H         -78.980751     -212.775452      -73.506821
 H         -78.389488     -211.056320      -69.876404
 H         -77.327087     -212.460739      -69.866196
 H         -80.982315     -212.861435      -71.736641
 H         -80.702164     -211.306503      -71.131645
 H         -79.531525     -213.266190      -69.833771
 H         -78.609123     -213.764114      -71.209908
