20
 generated by VMD
 C          -2.279783       -9.048198        0.660685
 N          -1.617728       -9.592093       -0.036001
 H          -2.482011      -11.846136        2.186262
 H          -3.274707      -12.107103        3.725271
 C          -3.232926      -12.513722        2.703290
 C          -2.773876      -13.947680        2.689188
 C          -4.651662      -12.370605        2.053470
 C          -3.864971      -14.979764        3.134999
 C          -5.685946      -13.236598        2.621565
 C          -5.246214      -14.705565        2.405849
 H          -1.871843      -14.202646        3.215931
 H          -2.589484      -14.251227        1.646803
 H          -4.892843      -11.289887        1.975760
 H          -4.472681      -12.708220        0.951868
 H          -4.051363      -14.978086        4.254797
 H          -3.580737      -15.991394        2.854961
 H          -6.583443      -13.030679        2.093808
 H          -5.886361      -13.074745        3.662319
 H          -6.079507      -15.345638        2.823584
 H          -5.282372      -14.905666        1.329460
