20
 generated by VMD
 C         -68.154266     -179.572540      -58.725082
 N         -67.864815     -179.761093      -57.617336
 H         -66.557922     -176.492401      -59.371605
 H         -68.496536     -179.319397      -59.691704
 C         -65.689476     -175.950348      -59.828156
 C         -66.013100     -174.875122      -60.852200
 C         -64.333702     -176.153259      -59.464119
 C         -65.116486     -173.554550      -60.613403
 C         -63.297890     -175.007721      -59.585079
 C         -63.634678     -174.011246      -60.697563
 H         -66.998329     -174.345749      -60.628269
 H         -66.099281     -175.408691      -61.883736
 H         -64.256485     -176.593872      -58.424133
 H         -63.940742     -176.922684      -60.163902
 H         -65.319412     -173.105484      -59.617313
 H         -65.280090     -172.787781      -61.408794
 H         -62.339260     -175.470245      -59.692558
 H         -63.291187     -174.399078      -58.656418
 H         -63.066593     -173.056122      -60.450047
 H         -63.157757     -174.324356      -61.656540
