20
 generated by VMD
 C         -49.937553     -131.528992      -46.661663
 N         -50.240963     -131.785339      -47.736591
 H         -48.296585     -132.046371      -43.915997
 H         -49.768276     -131.318695      -45.571247
 C         -49.056377     -132.204849      -43.182499
 C         -49.651314     -133.619247      -43.309780
 C         -48.719360     -131.755524      -41.711887
 C         -48.940807     -134.618484      -42.540264
 C         -47.992958     -132.866928      -40.952583
 C         -48.729145     -134.166077      -41.055885
 H         -49.694771     -133.850006      -44.416477
 H         -50.654900     -133.528702      -42.959469
 H         -48.195332     -130.768448      -41.785606
 H         -49.548405     -131.453873      -41.173450
 H         -47.904968     -134.751404      -43.014519
 H         -49.370724     -135.676270      -42.533199
 H         -47.721870     -132.551575      -39.949413
 H         -46.920471     -133.038696      -41.386639
 H         -48.214020     -135.028687      -40.584820
 H         -49.781277     -133.911652      -40.699093
