20
 generated by VMD
 C         -59.886536     -171.653610      -55.244278
 N         -59.532181     -172.733795      -54.865841
 H         -63.008308     -170.437729      -56.396118
 H         -60.199001     -170.691635      -55.699192
 C         -63.447739     -169.582092      -56.921394
 C         -62.701561     -168.341614      -57.319294
 C         -64.893158     -169.238266      -56.902584
 C         -63.081356     -167.841232      -58.808071
 C         -65.464363     -168.775818      -58.274380
 C         -64.603638     -167.638718      -58.940292
 H         -61.700264     -168.478500      -57.346230
 H         -62.955730     -167.450867      -56.559288
 H         -65.568298     -170.119278      -56.644451
 H         -65.031227     -168.384903      -56.094784
 H         -62.688000     -168.589523      -59.553455
 H         -62.462090     -166.994171      -59.002640
 H         -66.469254     -168.386337      -58.135536
 H         -65.398384     -169.565445      -58.982838
 H         -65.018044     -167.553955      -59.968735
 H         -64.842896     -166.744339      -58.382954
