20
 generated by VMD
 C         -57.999222     -167.766357      -55.268456
 N         -56.910824     -168.163330      -54.967907
 H         -61.178463     -166.556473      -55.489529
 H         -59.002483     -167.339813      -55.521420
 C         -62.135365     -166.360474      -55.945625
 C         -62.346725     -167.214905      -57.142117
 C         -62.833176     -165.123657      -55.581165
 C         -63.887577     -167.431046      -57.317375
 C         -64.313087     -165.421310      -55.693737
 C         -64.738014     -166.090393      -57.059937
 H         -61.868908     -168.170090      -57.154297
 H         -61.839970     -166.664627      -58.074032
 H         -62.591221     -164.765442      -54.622032
 H         -62.569435     -164.418396      -56.353783
 H         -64.173271     -168.161545      -56.612213
 H         -64.013283     -167.795654      -58.341122
 H         -64.965347     -164.490738      -55.639828
 H         -64.690285     -166.042236      -54.868912
 H         -65.838715     -166.400558      -57.034973
 H         -64.664375     -165.580429      -58.070107
