20
 generated by VMD
 C         -65.600876     -177.665192      -56.706341
 N         -66.134773     -176.654404      -56.455173
 H         -64.963623     -175.468597      -59.667389
 H         -65.106995     -178.605881      -57.024075
 C         -64.571320     -174.399048      -59.476822
 C         -65.394463     -173.479904      -58.673439
 C         -63.521244     -174.005661      -60.342644
 C         -65.009087     -171.886475      -58.927715
 C         -63.169712     -172.575180      -60.273293
 C         -64.383461     -171.658096      -60.254864
 H         -65.057175     -173.695312      -57.691845
 H         -66.510582     -173.572647      -58.680950
 H         -62.738262     -174.654785      -60.185146
 H         -63.660889     -174.304428      -61.364811
 H         -64.363358     -171.691422      -58.126770
 H         -65.900116     -171.373123      -58.695377
 H         -62.722351     -172.287064      -61.257782
 H         -62.483311     -172.298401      -59.437210
 H         -63.973278     -170.604370      -60.388428
 H         -64.915306     -171.959854      -61.111145
