20
 generated by VMD
 C         -60.769123     -155.462234      -54.749161
 N         -61.093853     -156.449921      -54.152916
 H         -59.121811     -155.160126      -51.928955
 H         -60.674927     -154.634399      -55.436253
 C         -58.116905     -155.294968      -51.555649
 C         -57.593822     -154.531036      -50.374744
 C         -57.226891     -155.923340      -52.501465
 C         -56.293766     -155.227829      -49.873516
 C         -56.062439     -156.705963      -51.820324
 C         -55.292496     -155.722733      -50.894997
 H         -58.382496     -154.474518      -49.633629
 H         -57.354214     -153.518372      -50.606049
 H         -57.844715     -156.619232      -53.129601
 H         -56.662109     -155.263107      -53.143913
 H         -56.614597     -156.049698      -49.182232
 H         -55.603382     -154.673325      -49.167912
 H         -55.299530     -157.104202      -52.570271
 H         -56.441322     -157.616623      -51.314781
 H         -54.457069     -156.236511      -50.519379
 H         -54.935246     -154.786926      -51.488686
