20
 generated by VMD
 C         -40.424248     -106.945602      -37.707256
 N         -39.325287     -106.639320      -37.850410
 H         -38.649971     -108.236732      -34.422840
 H         -41.333366     -107.306816      -37.318966
 C         -39.353966     -108.805679      -33.842930
 C         -38.779743     -110.117393      -33.424412
 C         -40.731239     -108.843887      -34.289761
 C         -39.666260     -110.678131      -32.204353
 C         -41.721737     -109.501907      -33.310726
 C         -41.173359     -110.834503      -32.605072
 H         -37.836025     -109.977745      -32.980793
 H         -38.753899     -110.800537      -34.277565
 H         -41.067528     -107.747726      -34.502861
 H         -40.749374     -109.374359      -35.240921
 H         -39.759415     -110.052567      -31.177494
 H         -39.142078     -111.586586      -31.939169
 H         -42.649754     -109.720558      -33.749702
 H         -41.805626     -108.702782      -32.566864
 H         -41.799110     -111.075195      -31.862221
 H         -41.214756     -111.667122      -33.382889
