20
 generated by VMD
 C         -79.066788     -208.205017      -75.806274
 N         -78.303246     -207.468353      -75.306129
 H         -79.124321     -210.340347      -73.571922
 H         -79.719154     -208.833099      -76.382896
 C         -78.639893     -210.109467      -72.594467
 C         -77.411041     -209.260391      -72.374969
 C         -78.902153     -211.141663      -71.540527
 C         -77.108940     -208.829041      -70.991241
 C         -78.482635     -210.756638      -70.080452
 C         -77.109245     -210.103897      -70.006973
 H         -77.706085     -208.362732      -72.871109
 H         -76.521255     -209.700027      -72.779358
 H         -79.986526     -211.303040      -71.661255
 H         -78.479607     -212.086441      -71.749825
 H         -77.857262     -208.091751      -70.676117
 H         -76.127266     -208.359528      -70.914474
 H         -78.566948     -211.419983      -69.277771
 H         -79.305466     -209.947723      -69.825714
 H         -76.727989     -209.664093      -69.087715
 H         -76.418274     -210.888702      -70.235573
