20
 generated by VMD
 C         -10.390188      -35.710274       -8.125370
 N         -10.115474      -35.773712       -9.223333
 H         -13.576493      -37.038311       -6.813892
 H         -14.602604      -38.024689       -5.760009
 C         -14.071938      -38.040535       -6.705030
 C         -13.148588      -39.199966       -6.728596
 C         -14.998998      -37.988201       -7.928522
 C         -13.855125      -40.509201       -6.921239
 C         -15.779212      -39.346767       -7.982123
 C         -14.846179      -40.507591       -8.051559
 H         -12.537166      -39.260349       -5.849386
 H         -12.405540      -39.072613       -7.481157
 H         -15.726772      -37.189011       -7.946710
 H         -14.452672      -37.783909       -8.915405
 H         -14.359036      -40.784309       -5.953504
 H         -13.125487      -41.355644       -6.978348
 H         -16.425714      -39.381573       -8.853638
 H         -16.469290      -39.452553       -7.076278
 H         -15.416269      -41.435051       -8.099613
 H         -14.286342      -40.444557       -9.011064
