20
 generated by VMD
 C         -21.520918      -65.738029      -17.017912
 N         -20.969791      -66.351616      -16.170938
 H         -24.486273      -63.875244      -18.331976
 H         -22.018114      -65.565636      -17.880657
 C         -24.460627      -64.948387      -18.396395
 C         -24.543024      -65.379837      -19.879320
 C         -25.371187      -65.670265      -17.406450
 C         -24.187351      -66.873581      -19.918703
 C         -25.112900      -67.193207      -17.618294
 C         -25.269812      -67.553558      -19.030062
 H         -23.923006      -64.757065      -20.550262
 H         -25.610945      -65.048241      -20.065247
 H         -25.255234      -65.416969      -16.383345
 H         -26.367754      -65.365868      -17.515823
 H         -23.236378      -67.028839      -19.480469
 H         -24.127373      -67.200264      -20.974388
 H         -25.738646      -67.658897      -16.878262
 H         -24.071941      -67.427673      -17.279655
 H         -25.266247      -68.629517      -19.219265
 H         -26.304764      -67.155960      -19.358200
