20
 generated by VMD
 C         -27.562500      -86.697342      -26.635794
 N         -28.377035      -85.847679      -26.607769
 H         -30.776758      -86.131775      -25.477192
 H         -26.768410      -87.473854      -26.772911
 C         -31.809883      -86.600555      -25.601871
 C         -32.741302      -86.972176      -24.388300
 C         -32.073044      -87.201118      -26.925854
 C         -34.185986      -87.523849      -24.913923
 C         -33.488693      -87.492752      -27.303135
 C         -34.243034      -88.216499      -26.208200
 H         -32.972443      -86.004158      -23.801870
 H         -32.401665      -87.696045      -23.655745
 H         -31.758797      -86.521912      -27.752386
 H         -31.530174      -88.140663      -27.008904
 H         -34.771729      -86.620918      -24.804090
 H         -34.719612      -88.009071      -24.088728
 H         -33.570000      -88.060982      -28.208055
 H         -33.994640      -86.496742      -27.611717
 H         -35.328857      -88.181572      -26.519148
 H         -33.843948      -89.209290      -26.270519
