20
 generated by VMD
 C         -79.747223     -206.819519      -73.307640
 N         -79.778419     -206.122025      -74.263245
 H         -78.270096     -205.464005      -70.358429
 H         -80.072403     -207.478271      -72.431831
 C         -77.191826     -205.632278      -70.311996
 C         -76.258911     -204.635498      -70.960510
 C         -76.950935     -206.881256      -69.560730
 C         -74.822792     -204.882782      -70.449516
 C         -75.463211     -207.009048      -69.199318
 C         -74.540016     -206.330154      -70.193069
 H         -76.691360     -203.581451      -70.886101
 H         -76.232849     -204.930847      -71.975990
 H         -77.695564     -206.976440      -68.739914
 H         -77.052322     -207.801468      -70.119225
 H         -74.743134     -204.271637      -69.588394
 H         -74.190422     -204.442673      -71.173698
 H         -75.227615     -208.047180      -68.953545
 H         -75.299957     -206.589539      -68.184021
 H         -73.580734     -206.467422      -69.624557
 H         -74.325798     -206.762421      -71.151512
