20
 generated by VMD
 C         -20.072792      -56.149208      -16.796602
 N         -21.152245      -56.394051      -16.521160
 H         -21.883730      -59.429241      -17.337429
 H         -19.114935      -55.852062      -16.779819
 C         -22.231556      -59.930576      -16.502766
 C         -22.630964      -59.474056      -15.196274
 C         -22.033026      -61.467617      -16.541306
 C         -21.548391      -59.724110      -14.188964
 C         -20.888844      -61.821407      -15.596728
 C         -20.943958      -61.104134      -14.184775
 H         -23.573709      -60.039696      -14.947946
 H         -22.937189      -58.385841      -15.187973
 H         -22.939030      -61.896305      -16.178101
 H         -21.889380      -61.824871      -17.542101
 H         -21.930794      -59.552017      -13.201842
 H         -20.822462      -58.953556      -14.270953
 H         -19.895779      -61.523651      -16.100416
 H         -20.715889      -62.967785      -15.535230
 H         -21.689766      -61.682178      -13.629292
 H         -19.938271      -61.197720      -13.757064
