20
 generated by VMD
 C         -38.479050     -108.877136      -36.683044
 N         -37.324692     -108.783539      -36.617390
 H         -41.355721     -109.797455      -36.109318
 H         -39.535938     -108.742844      -36.644089
 C         -42.011669     -110.448334      -35.659229
 C         -41.514931     -111.943558      -35.790989
 C         -42.724396     -110.196655      -34.355812
 C         -40.630398     -112.315689      -34.619793
 C         -41.931980     -110.711304      -33.113007
 C         -41.406696     -112.163177      -33.319496
 H         -40.959930     -112.064384      -36.772461
 H         -42.456253     -112.456795      -35.766750
 H         -42.907032     -109.094963      -34.396076
 H         -43.807983     -110.604195      -34.431316
 H         -39.714478     -111.616356      -34.580509
 H         -40.401470     -113.322411      -34.718586
 H         -42.621815     -110.735886      -32.197235
 H         -41.069324     -109.957878      -32.860878
 H         -40.911201     -112.527000      -32.466183
 H         -42.347008     -112.896721      -33.321884
