20
 generated by VMD
 C         -15.490667      -47.625561       -6.268754
 N         -15.635540      -46.617676       -5.830173
 H         -16.616032      -47.315685       -9.893761
 H         -15.168405      -47.084351      -11.113969
 C         -16.258917      -46.881508      -10.861227
 C         -16.464510      -45.353981      -10.873005
 C         -17.102356      -47.387928      -12.011063
 C         -16.170012      -44.574314      -12.149145
 C         -16.911207      -46.602074      -13.302440
 C         -17.070692      -45.062321      -13.253408
 H         -15.911514      -44.935928      -10.055466
 H         -17.510704      -45.177158      -10.599198
 H         -16.892979      -48.450165      -12.137320
 H         -18.162828      -47.372631      -11.717142
 H         -15.112631      -44.732868      -12.408211
 H         -16.232983      -43.473381      -12.059088
 H         -17.682590      -46.864655      -14.032587
 H         -15.902243      -46.862190      -13.709263
 H         -16.858698      -44.709850      -14.232730
 H         -18.117256      -44.792919      -13.016216
