20
 generated by VMD
 C         -58.230515     -166.873917      -55.970512
 N         -57.875221     -167.521378      -55.121475
 H         -60.873631     -166.074219      -55.006348
 H         -58.535778     -166.291397      -56.797466
 C         -61.668903     -165.819778      -55.678848
 C         -61.940556     -166.869736      -56.751118
 C         -62.572395     -164.612930      -55.567265
 C         -63.341934     -167.296967      -56.561241
 C         -63.996849     -165.083862      -55.545086
 C         -64.305801     -166.138107      -56.578384
 H         -61.249874     -167.595413      -56.544746
 H         -61.764431     -166.426163      -57.780819
 H         -62.360497     -163.996048      -54.613258
 H         -62.505013     -163.965729      -56.400417
 H         -63.453079     -167.729736      -55.598225
 H         -63.696861     -167.963852      -57.320560
 H         -64.580414     -164.178360      -55.722664
 H         -64.113823     -165.444077      -54.640671
 H         -65.365685     -166.353775      -56.434017
 H         -64.299118     -165.674805      -57.595875
