20
 generated by VMD
 C         -36.648067      -98.179512      -26.823029
 N         -37.810265      -98.336563      -26.797417
 H         -36.444916      -96.345299      -28.957842
 H         -35.553684      -98.065720      -26.824076
 C         -35.482662      -96.315727      -29.404961
 C         -35.483509      -97.084076      -30.751743
 C         -34.453537      -95.357552      -29.035954
 C         -35.094376      -96.133736      -31.901974
 C         -34.096340      -94.427010      -30.182293
 C         -33.974598      -95.219017      -31.539871
 H         -36.513954      -97.473137      -30.961046
 H         -34.723526      -97.905266      -30.759340
 H         -34.913692      -94.783020      -28.210934
 H         -33.688614      -95.926369      -28.550020
 H         -35.924717      -95.499649      -32.286884
 H         -34.836254      -96.760590      -32.759933
 H         -33.046158      -94.038475      -29.878521
 H         -34.799217      -93.600372      -30.191767
 H         -33.592808      -94.704994      -32.352783
 H         -33.119431      -96.073158      -31.369724
