20
 generated by VMD
 C         -60.815575     -153.267960      -52.387840
 N         -60.834389     -153.140930      -51.187115
 H         -57.634636     -153.921539      -50.639847
 H         -60.835194     -153.554306      -53.466610
 C         -56.672462     -153.398682      -50.667297
 C         -55.613239     -153.639145      -49.581615
 C         -56.567097     -152.102554      -51.326435
 C         -54.090588     -153.176651      -49.838684
 C         -55.085876     -151.668991      -51.645107
 C         -54.038193     -151.873276      -50.495388
 H         -55.629826     -154.725357      -49.258312
 H         -56.076931     -153.170502      -48.650143
 H         -56.977139     -152.305557      -52.313183
 H         -57.176380     -151.358185      -50.821552
 H         -53.633629     -153.944687      -50.516495
 H         -53.745140     -153.155853      -48.804920
 H         -55.048656     -150.693268      -52.049458
 H         -54.646427     -152.334747      -52.570831
 H         -52.998581     -151.698730      -50.937286
 H         -54.334866     -151.123413      -49.636795
