20
 generated by VMD
 C         -11.838267      -37.915718       -7.840676
 N         -11.185082      -37.618137       -7.021146
 H         -12.481060      -41.519352       -8.736002
 H         -13.482002      -40.447479       -7.628280
 C         -13.546494      -41.176392       -8.529151
 C         -14.407104      -42.350243       -8.090866
 C         -14.191980      -40.482700       -9.693982
 C         -15.928566      -41.973663       -7.901896
 C         -15.534233      -39.873486       -9.287159
 C         -16.480143      -41.038967       -8.956237
 H         -13.992254      -42.899536       -7.188191
 H         -14.299699      -43.163803       -8.842820
 H         -13.457034      -39.793514      -10.172718
 H         -14.302797      -41.193417      -10.483835
 H         -16.100294      -41.558804       -6.893653
 H         -16.523815      -42.897259       -7.825673
 H         -15.905615      -39.357933      -10.191191
 H         -15.521175      -39.196934       -8.394671
 H         -17.507992      -40.614513       -8.702100
 H         -16.587992      -41.685528       -9.854116
