20
 generated by VMD
 C         -68.972939     -180.969635      -61.217999
 N         -69.943604     -180.804199      -60.589676
 H         -67.241478     -178.402390      -59.574848
 H         -68.031006     -180.999084      -61.724030
 C         -66.253235     -177.898071      -59.823963
 C         -65.859612     -178.042770      -61.190742
 C         -65.375740     -177.401016      -58.842197
 C         -64.971954     -176.944366      -61.776871
 C         -64.688713     -176.083679      -59.240295
 C         -64.051331     -176.331528      -60.681992
 H         -66.754181     -178.060760      -61.823055
 H         -65.304489     -178.928726      -61.349022
 H         -65.967560     -177.382584      -57.848953
 H         -64.616875     -178.139450      -58.688511
 H         -65.625450     -176.072540      -62.065598
 H         -64.394173     -177.156631      -62.738823
 H         -63.861336     -175.927902      -58.574707
 H         -65.329430     -175.184570      -59.089279
 H         -63.738602     -175.401382      -61.250053
 H         -63.123383     -176.873978      -60.640839
