20
 generated by VMD
 C         -29.809341      -79.411346      -26.336737
 N         -30.628941      -78.723267      -25.857517
 H         -28.699881      -83.113541      -25.627026
 H         -28.982870      -80.086952      -26.732185
 C         -29.001518      -83.105011      -24.612450
 C         -28.461863      -82.053047      -23.656584
 C         -29.970667      -84.108032      -24.231686
 C         -29.702986      -81.403252      -22.903776
 C         -31.033810      -83.631531      -23.297859
 C         -30.449400      -82.619919      -22.211063
 H         -28.003113      -81.279930      -24.177668
 H         -27.735668      -82.512680      -22.949837
 H         -30.506098      -84.499733      -25.080326
 H         -29.324951      -84.925865      -23.851816
 H         -30.546158      -80.865967      -23.496046
 H         -29.419495      -80.602898      -22.151670
 H         -31.619717      -84.380661      -22.826220
 H         -31.784565      -83.022545      -23.929808
 H         -31.216125      -82.152199      -21.615829
 H         -29.761211      -83.169495      -21.478815
