20
 generated by VMD
 C         -30.320328      -75.883339      -23.134148
 N         -30.896357      -75.745720      -24.178329
 H         -29.478365      -78.417709      -21.759499
 H         -29.803448      -75.963791      -22.252865
 C         -28.425915      -78.047882      -21.761477
 C         -27.589481      -78.241875      -22.954529
 C         -27.635458      -77.773232      -20.442829
 C         -26.744087      -76.949707      -23.124626
 C         -26.867138      -76.410309      -20.637045
 C         -25.890629      -76.603844      -21.844641
 H         -28.208046      -78.367340      -23.874544
 H         -27.105709      -79.145790      -23.026188
 H         -28.457016      -77.655396      -19.632936
 H         -27.010216      -78.594299      -20.141813
 H         -27.221907      -76.045807      -23.489738
 H         -26.045355      -77.173393      -23.950706
 H         -26.435987      -76.067162      -19.678154
 H         -27.682173      -75.596947      -20.811146
 H         -25.424986      -75.599045      -21.984058
 H         -25.075895      -77.307999      -21.765404
