20
 generated by VMD
 C          -1.264058      -12.186919        1.436835
 N          -0.905408      -12.575661        0.461162
 H          -3.876551      -13.104300        0.919256
 H          -5.520810      -13.010681        0.540148
 C          -4.808371      -13.649759        1.059916
 C          -5.029143      -13.943934        2.555802
 C          -4.607735      -14.979415        0.305846
 C          -6.114192      -14.962855        2.778785
 C          -5.762686      -15.944248        0.549743
 C          -5.884562      -16.254831        2.044880
 H          -5.289561      -12.940330        3.015377
 H          -4.079608      -14.355439        2.867533
 H          -4.620445      -14.702319       -0.694967
 H          -3.654683      -15.344748        0.531965
 H          -7.056293      -14.487483        2.474549
 H          -6.138121      -15.123565        3.888189
 H          -5.663910      -16.887487       -0.070321
 H          -6.696721      -15.423057        0.242322
 H          -6.624876      -16.991776        2.268752
 H          -4.926716      -16.655251        2.330400
