20
 generated by VMD
 C         -68.644470     -195.573975      -64.715195
 N         -68.645172     -196.726227      -65.001511
 H         -71.137077     -194.308594      -67.308052
 H         -68.756897     -194.457016      -64.493111
 C         -72.086533     -193.918457      -66.894455
 C         -72.152855     -192.433655      -66.742897
 C         -73.244499     -194.575500      -67.518433
 C         -73.546730     -191.971237      -66.254532
 C         -74.639511     -194.059052      -67.111557
 C         -74.708481     -192.569504      -67.107582
 H         -71.917755     -191.975128      -67.773857
 H         -71.355179     -191.825806      -66.171883
 H         -73.151001     -194.561661      -68.717026
 H         -73.229179     -195.760391      -67.296715
 H         -73.628975     -190.885605      -66.283325
 H         -73.691833     -192.153000      -65.206825
 H         -74.849510     -194.395645      -66.110985
 H         -75.448853     -194.457352      -67.756325
 H         -74.839821     -192.060135      -68.163795
 H         -75.582001     -192.314362      -66.648224
