20
 generated by VMD
 C         -32.260536      -93.771935      -25.329578
 N         -33.131435      -94.526596      -25.501986
 H         -33.891186      -95.015884      -28.599838
 H         -31.315290      -93.184715      -25.025366
 C         -34.272282      -94.148232      -29.027182
 C         -35.617149      -93.608421      -28.604427
 C         -33.664028      -93.472237      -30.136148
 C         -35.525265      -92.099182      -28.355761
 C         -33.510841      -91.888199      -30.007185
 C         -34.926563      -91.384911      -29.633810
 H         -35.995895      -94.170792      -27.767893
 H         -36.172665      -93.953209      -29.452763
 H         -32.643414      -93.812218      -30.135435
 H         -34.032738      -93.730003      -31.145926
 H         -34.901150      -92.022339      -27.446295
 H         -36.471245      -91.619644      -28.132017
 H         -33.221504      -91.482536      -31.027037
 H         -32.803482      -91.468750      -29.292271
 H         -34.755569      -90.405556      -29.339861
 H         -35.665371      -91.527008      -30.368736
