20
 generated by VMD
 C         -40.834679     -103.508530      -35.626595
 N         -41.370113     -104.531654      -35.529457
 H         -38.974056     -104.464630      -34.138229
 H         -40.678608     -102.483238      -35.757942
 C         -38.574211     -104.995979      -33.176651
 C         -37.081963     -104.834763      -32.790421
 C         -39.350555     -106.188240      -32.727886
 C         -36.905308     -105.561043      -31.399588
 C         -38.944618     -107.026390      -31.568932
 C         -37.441715     -107.005127      -31.491159
 H         -37.041344     -103.689613      -32.687695
 H         -36.369156     -105.125160      -33.610340
 H         -40.343918     -105.932190      -32.662834
 H         -39.253151     -106.884140      -33.623814
 H         -37.529110     -104.966049      -30.685997
 H         -35.853664     -105.668503      -31.160866
 H         -39.303860     -108.021606      -31.702351
 H         -39.457821     -106.507866      -30.777510
 H         -37.212936     -107.383125      -30.429043
 H         -36.992519     -107.633354      -32.210800
