20
 generated by VMD
 C         -69.777763     -183.206009      -65.738564
 N         -70.858986     -182.712494      -65.840820
 H         -68.309196     -183.563766      -63.022129
 H         -68.853378     -183.723145      -65.719772
 C         -67.679375     -183.246063      -62.195763
 C         -67.735428     -183.898407      -60.846966
 C         -67.287498     -181.805206      -62.298027
 C         -66.823959     -183.288239      -59.809643
 C         -66.621117     -181.158569      -61.039223
 C         -67.117889     -181.785004      -59.747112
 H         -67.481598     -184.971115      -61.086845
 H         -68.878731     -183.729095      -60.447231
 H         -66.427818     -181.688629      -63.080448
 H         -68.048447     -181.139420      -62.699371
 H         -65.864555     -183.253967      -60.096508
 H         -67.011055     -183.819656      -58.900845
 H         -66.661942     -180.041412      -61.145748
 H         -65.514542     -181.297897      -61.126820
 H         -66.400978     -181.315094      -58.984070
 H         -68.161530     -181.599976      -59.548870
