20
 generated by VMD
 C         -11.106588      -34.731995       -9.138705
 N         -10.658357      -35.334663       -8.310732
 H         -12.154371      -37.225506       -7.509429
 H         -13.316057      -37.189541       -6.098279
 C         -13.064993      -37.620735       -7.032037
 C         -12.613194      -39.058895       -6.692449
 C         -14.314334      -37.584202       -7.969885
 C         -13.752767      -39.933125       -6.218069
 C         -15.386686      -38.596630       -7.589224
 C         -14.874270      -40.024708       -7.334954
 H         -11.797047      -38.958996       -5.996530
 H         -12.260388      -39.480434       -7.598323
 H         -14.733709      -36.543396       -8.023933
 H         -13.929844      -37.885181       -8.901172
 H         -14.198665      -39.452484       -5.348187
 H         -13.432344      -40.925106       -5.992570
 H         -16.229782      -38.547001       -8.381256
 H         -15.798053      -38.243385       -6.654974
 H         -15.738952      -40.632092       -6.958085
 H         -14.492000      -40.552216       -8.222264
