20
 generated by VMD
 C         -38.313194     -108.053047      -37.310005
 N         -38.879852     -107.349625      -38.061428
 H         -40.424545     -108.355988      -35.051453
 H         -37.760559     -108.585579      -36.535389
 C         -40.739861     -109.206573      -34.486355
 C         -39.867386     -110.424416      -34.633293
 C         -42.115540     -109.555542      -34.039852
 C         -39.889301     -111.291542      -33.276875
 C         -42.217869     -110.388283      -32.705917
 C         -41.272255     -111.644676      -32.838478
 H         -38.822475     -110.275795      -34.834644
 H         -40.151936     -111.163818      -35.374226
 H         -42.706985     -108.629478      -33.903191
 H         -42.651497     -109.972504      -34.888008
 H         -39.345192     -110.567741      -32.527966
 H         -39.180244     -112.163094      -33.301346
 H         -43.222778     -110.646683      -32.560104
 H         -41.885818     -109.752197      -31.875000
 H         -41.177555     -112.113579      -31.911842
 H         -41.710712     -112.308769      -33.638321
