20
 generated by VMD
 C         -70.222839     -182.933990      -63.810383
 N         -69.743477     -183.115570      -64.817810
 H         -68.527313     -179.817764      -62.150475
 H         -70.630852     -182.774872      -62.790520
 C         -67.827675     -180.362534      -61.559677
 C         -67.764130     -181.833710      -61.415394
 C         -66.984962     -179.434753      -60.727570
 C         -66.396721     -182.248703      -60.898762
 C         -65.638298     -179.976822      -60.531567
 C         -65.643059     -181.348892      -60.028439
 H         -67.946404     -182.469498      -62.339554
 H         -68.496368     -182.139389      -60.707672
 H         -66.976662     -178.439011      -61.250908
 H         -67.548332     -179.135635      -59.896809
 H         -65.794464     -182.378189      -61.724087
 H         -66.363243     -183.180344      -60.476433
 H         -64.973473     -179.360153      -59.896870
 H         -65.194740     -179.908966      -61.528111
 H         -64.553642     -181.843857      -59.910557
 H         -66.068733     -181.333359      -59.053680
