20
 generated by VMD
 C         -12.516726      -30.231243       -7.931112
 N         -13.515787      -29.991201       -7.500982
 H         -11.469997      -30.386538       -5.174201
 H         -10.540620      -30.355818       -3.848619
 C         -10.802539      -31.067207       -4.620091
 C          -9.602599      -31.564760       -5.431535
 C         -11.763177      -32.234749       -4.156770
 C          -8.997206      -32.741573       -4.730878
 C         -11.088246      -33.487915       -3.518922
 C          -9.907570      -33.891083       -4.454916
 H          -8.910154      -30.778473       -5.512532
 H          -9.961602      -31.878719       -6.458805
 H         -12.451865      -31.833231       -3.408296
 H         -12.426930      -32.470783       -5.002385
 H          -8.508153      -32.409721       -3.778274
 H          -8.180621      -33.152451       -5.371359
 H         -11.860615      -34.333542       -3.433218
 H         -10.648068      -33.322517       -2.571775
 H          -9.289111      -34.714966       -4.015295
 H         -10.272018      -34.346455       -5.364139
