20
 generated by VMD
 C         -12.476330      -27.625610       -4.636538
 N         -13.141185      -28.003569       -5.433963
 H         -10.939322      -30.562822       -2.885403
 H         -10.936061      -29.135542       -3.892722
 C         -10.280035      -29.928165       -3.415706
 C          -9.531556      -30.577265       -4.550823
 C          -9.314211      -29.255682       -2.441249
 C          -8.757957      -29.575876       -5.276495
 C          -8.382452      -28.302773       -3.154983
 C          -7.773181      -28.944006       -4.403913
 H         -10.187030      -31.091318       -5.184786
 H          -8.867076      -31.420486       -4.204081
 H          -9.861878      -28.746181       -1.599315
 H          -8.732344      -30.095016       -2.010424
 H          -9.366805      -28.823153       -5.769255
 H          -8.319439      -30.034843       -6.150064
 H          -7.604071      -27.924606       -2.519575
 H          -8.946484      -27.377193       -3.496966
 H          -7.145832      -28.244295       -5.021789
 H          -7.069662      -29.670616       -4.012632
