20
 generated by VMD
 C         -13.752192      -29.306290       -7.350175
 N         -13.438772      -29.068457       -8.394351
 H         -11.500886      -30.269564       -4.668948
 H         -10.179854      -30.059202       -3.701301
 C         -10.709016      -30.860086       -4.293415
 C          -9.845123      -31.417797       -5.447833
 C         -11.252335      -31.966545       -3.413477
 C          -8.671026      -32.341476       -5.026492
 C         -10.105163      -32.808132       -2.879451
 C          -9.148082      -33.383133       -3.994798
 H          -9.302554      -30.585115       -5.979297
 H         -10.549269      -31.926914       -6.146733
 H         -11.725918      -31.494789       -2.557399
 H         -12.079498      -32.455482       -3.947626
 H          -7.858441      -31.801920       -4.604075
 H          -8.226466      -32.805115       -5.898907
 H         -10.411544      -33.675842       -2.237728
 H          -9.448206      -32.191044       -2.261536
 H          -8.280837      -33.803505       -3.519170
 H          -9.553478      -34.299698       -4.364699
