20
 generated by VMD
 C         -50.268604     -145.238464      -45.013493
 N         -49.845249     -144.650970      -44.095425
 H         -53.072624     -142.985962      -45.758846
 H         -50.562145     -145.689362      -45.969383
 C         -53.365360     -142.836380      -46.781307
 C         -52.542191     -142.841766      -48.086124
 C         -54.713116     -142.093460      -46.847328
 C         -53.369747     -143.054550      -49.348110
 C         -55.411266     -142.239471      -48.119835
 C         -54.497307     -142.097336      -49.343338
 H         -51.745220     -143.514008      -47.858231
 H         -51.938702     -141.949539      -48.213264
 H         -55.351982     -142.409256      -46.059551
 H         -54.459385     -141.106110      -46.813721
 H         -53.817028     -144.014999      -49.456585
 H         -52.667267     -142.927170      -50.129814
 H         -56.219643     -141.561859      -48.172134
 H         -55.924110     -143.165833      -48.091797
 H         -55.160851     -142.182251      -50.208469
 H         -54.224632     -141.089020      -49.478989
