20
 generated by VMD
 C         -65.434418     -177.547333      -56.526920
 N         -66.104645     -176.861832      -55.877258
 H         -64.076515     -174.986023      -58.801353
 H         -64.824669     -178.148697      -57.230629
 C         -64.269272     -174.115601      -59.290363
 C         -65.426872     -173.204956      -58.970234
 C         -63.616566     -173.779724      -60.520378
 C         -64.930412     -171.806320      -58.771877
 C         -63.233398     -172.331116      -60.535828
 C         -64.194847     -171.365784      -60.035145
 H         -65.960785     -173.491821      -57.975971
 H         -66.188255     -173.306778      -59.712811
 H         -62.736107     -174.450470      -60.726341
 H         -64.426140     -173.818878      -61.244217
 H         -64.160255     -171.720413      -58.005787
 H         -65.675140     -171.011414      -58.589592
 H         -62.974602     -172.099548      -61.551968
 H         -62.235718     -172.239075      -60.052460
 H         -63.922874     -170.368240      -59.909832
 H         -65.005569     -171.270645      -60.805202
