20
 generated by VMD
 C         -20.329163      -57.309868      -16.710800
 N         -19.430376      -56.550529      -16.806253
 H         -22.884939      -59.861507      -17.757021
 H         -21.306635      -57.837631      -16.856861
 C         -22.511936      -60.454033      -16.923851
 C         -23.574604      -60.705688      -15.907946
 C         -21.182550      -61.196098      -16.715206
 C         -23.165272      -60.957588      -14.520910
 C         -21.081934      -62.128941      -15.539933
 C         -22.092003      -61.990318      -14.337974
 H         -24.046690      -61.620770      -16.359983
 H         -24.380062      -60.007534      -15.937746
 H         -21.016870      -61.809547      -17.638380
 H         -20.393486      -60.447281      -16.705368
 H         -24.057632      -61.177311      -13.899655
 H         -22.676105      -60.005024      -14.217311
 H         -19.996471      -62.014191      -15.181247
 H         -20.916754      -63.208900      -15.784245
 H         -22.542126      -62.970608      -14.114453
 H         -21.461679      -61.625832      -13.553060
