20
 generated by VMD
 C         -19.196314      -61.480209      -16.324446
 N         -19.937170      -60.559124      -16.383026
 H         -22.073006      -62.654148      -18.357508
 H         -18.634100      -62.423355      -16.172241
 C         -23.030478      -62.962097      -17.848143
 C         -24.075050      -63.540516      -18.759544
 C         -22.969952      -63.207695      -16.315609
 C         -24.765886      -64.825851      -18.292469
 C         -23.628204      -64.575951      -16.020304
 C         -24.901186      -64.764282      -16.724657
 H         -23.742180      -63.653065      -19.760351
 H         -24.824188      -62.792461      -18.896116
 H         -21.992863      -63.212353      -15.929018
 H         -23.435991      -62.306229      -15.837389
 H         -24.312868      -65.807564      -18.536709
 H         -25.796661      -64.745804      -18.583990
 H         -23.927782      -64.554901      -14.942714
 H         -22.972523      -65.463211      -15.992466
 H         -25.505817      -65.616096      -16.389925
 H         -25.551229      -63.870941      -16.602543
