20
 generated by VMD
 C         -59.958027     -152.813675      -51.044731
 N         -60.862003     -152.503906      -51.776112
 H         -56.955593     -153.206680      -49.444607
 H         -59.212597     -153.050583      -50.255386
 C         -56.075733     -152.579147      -49.600651
 C         -54.644516     -153.012192      -49.402317
 C         -56.369095     -151.154617      -50.110226
 C         -53.916111     -152.437302      -50.651829
 C         -55.493980     -150.629120      -51.214840
 C         -54.064762     -150.958405      -50.953869
 H         -54.367359     -154.082138      -49.334743
 H         -54.307095     -152.443283      -48.498360
 H         -57.366428     -151.294220      -50.457668
 H         -56.528225     -150.520538      -49.239780
 H         -54.295406     -153.054550      -51.451077
 H         -52.836838     -152.570847      -50.483028
 H         -55.541878     -149.415604      -51.236809
 H         -55.741081     -150.823761      -52.206001
 H         -53.396599     -150.777008      -51.898525
 H         -53.722519     -150.432098      -50.108128
