20
 generated by VMD
 C         -30.817070      -78.412086      -25.534576
 N         -31.257099      -77.448524      -25.012321
 H         -29.390795      -77.124573      -22.949938
 H         -30.458195      -79.361427      -25.594782
 C         -28.831648      -78.055191      -22.640572
 C         -27.428478      -78.279457      -23.115086
 C         -29.541866      -79.285217      -22.116396
 C         -26.597235      -79.275726      -22.381372
 C         -28.616049      -80.165260      -21.274832
 C         -27.292624      -80.516136      -22.072847
 H         -26.846987      -77.330185      -23.260012
 H         -27.522221      -78.501358      -24.212620
 H         -30.343266      -79.094185      -21.461277
 H         -30.000202      -79.892288      -22.961212
 H         -26.261782      -78.698647      -21.487617
 H         -25.704937      -79.644348      -22.956261
 H         -28.952984      -81.146294      -20.886110
 H         -28.295013      -79.506660      -20.383703
 H         -26.640768      -81.237236      -21.487999
 H         -27.591633      -81.000320      -23.086351
