20
 generated by VMD
 C          -6.075689      -22.217758        1.938408
 N          -6.511487      -22.951410        2.683809
 H          -5.239818      -19.423283       -0.773892
 H          -6.759169      -20.288456       -0.191027
 C          -6.178659      -19.929571       -1.085784
 C          -5.728977      -21.104794       -1.943906
 C          -7.169935      -19.054310       -1.842160
 C          -6.902603      -21.980661       -2.534588
 C          -8.320828      -19.866617       -2.437360
 C          -7.940714      -21.070343       -3.279122
 H          -5.038863      -21.758699       -1.358727
 H          -5.058024      -20.798033       -2.739005
 H          -7.613814      -18.344870       -1.194295
 H          -6.637733      -18.568787       -2.624173
 H          -7.411844      -22.377470       -1.666313
 H          -6.540928      -22.747435       -3.201305
 H          -8.991878      -19.187477       -2.986532
 H          -8.752526      -20.246168       -1.504368
 H          -8.761805      -21.623930       -3.689048
 H          -7.425253      -20.683254       -4.140485
