20
 generated by VMD
 C         -70.549850     -181.282135      -64.000809
 N         -70.709145     -182.231857      -63.401051
 H         -68.209625     -181.499496      -61.134796
 H         -70.411720     -180.343048      -64.554504
 C         -67.329575     -180.824203      -60.849388
 C         -66.156799     -181.542526      -60.374695
 C         -67.337044     -179.420898      -60.529846
 C         -64.762596     -180.892593      -60.772881
 C         -66.003143     -178.690475      -60.782829
 C         -64.805702     -179.468353      -60.336044
 H         -66.117950     -182.548370      -60.916939
 H         -66.175430     -181.722961      -59.262051
 H         -68.133347     -178.922073      -61.176609
 H         -67.600151     -179.353516      -59.496540
 H         -64.553810     -180.794662      -61.783844
 H         -63.898586     -181.451538      -60.499508
 H         -65.996552     -177.722580      -60.214806
 H         -65.940826     -178.512329      -61.857559
 H         -63.947762     -178.857574      -60.849304
 H         -64.583755     -179.326416      -59.306725
