20
 generated by VMD
 C         -40.522324     -117.212608      -34.527950
 N         -39.480125     -116.813560      -34.827923
 H         -41.681892     -116.143967      -37.417564
 H         -41.331532     -117.849083      -34.159000
 C         -42.644001     -116.513977      -37.687817
 C         -42.971008     -116.358215      -39.157074
 C         -43.731304     -116.105827      -36.717365
 C         -44.329910     -116.984642      -39.527515
 C         -44.960815     -116.957733      -36.923100
 C         -45.429161     -116.718803      -38.543892
 H         -42.237465     -116.873535      -39.798172
 H         -42.821423     -115.305023      -39.434170
 H         -43.422165     -116.328110      -35.634689
 H         -43.951019     -115.085899      -36.958752
 H         -44.159908     -118.052620      -39.756428
 H         -44.687241     -116.588028      -40.524212
 H         -45.893494     -116.741051      -36.358242
 H         -44.681511     -118.055153      -36.982475
 H         -46.354179     -117.296692      -38.636829
 H         -45.822792     -115.625374      -38.615936
