20
 generated by VMD
 C         -21.330786      -56.218620      -17.445312
 N         -20.770536      -55.245853      -17.901850
 H         -23.353086      -58.722561      -15.454525
 H         -21.913155      -56.649803      -16.754045
 C         -22.454256      -59.289787      -15.215479
 C         -21.791485      -59.018360      -13.864992
 C         -21.698141      -60.113731      -16.246767
 C         -20.918022      -60.044846      -13.288988
 C         -20.360014      -60.608639      -15.644699
 C         -20.554085      -61.169582      -14.260102
 H         -22.598953      -58.780918      -13.168060
 H         -21.254616      -58.004257      -13.919251
 H         -22.349642      -60.893505      -16.684166
 H         -21.573215      -59.478218      -17.153849
 H         -21.469339      -60.494484      -12.516581
 H         -20.009539      -59.641167      -12.823544
 H         -19.407446      -60.053448      -15.842298
 H         -20.146605      -61.495331      -16.273775
 H         -21.275608      -61.994640      -14.340689
 H         -19.507870      -61.529964      -14.024499
