20
 generated by VMD
 C         -40.891312     -103.694954      -35.729702
 N         -41.530643     -104.655457      -35.681999
 H         -38.878616     -104.239777      -33.874767
 H         -40.590557     -102.623657      -35.831932
 C         -38.540867     -104.961098      -33.048248
 C         -37.066101     -104.945152      -32.580990
 C         -39.384880     -106.204788      -32.963036
 C         -36.780312     -105.839027      -31.324751
 C         -39.042019     -106.905922      -31.755398
 C         -37.573212     -107.132149      -31.489759
 H         -36.772633     -104.012131      -32.274353
 H         -36.405113     -105.213051      -33.378445
 H         -40.506813     -106.086922      -32.968105
 H         -39.075890     -106.846901      -33.802147
 H         -37.181087     -105.198418      -30.464048
 H         -35.652634     -106.012314      -31.324217
 H         -39.623901     -107.811951      -31.819847
 H         -39.390915     -106.313461      -30.858801
 H         -37.439156     -107.744438      -30.606989
 H         -37.083443     -107.636299      -32.359344
