20
 generated by VMD
 C         -50.288246     -145.216843      -45.073479
 N         -49.895557     -144.727859      -44.055290
 H         -52.844288     -143.212372      -45.895298
 H         -50.559559     -145.721817      -45.977051
 C         -53.445774     -142.945694      -46.777004
 C         -52.505665     -142.850479      -48.045750
 C         -54.637177     -142.085098      -46.781273
 C         -53.350292     -143.091736      -49.343037
 C         -55.414295     -142.243988      -48.190769
 C         -54.567738     -142.115204      -49.465084
 H         -51.753613     -143.588348      -48.110008
 H         -52.187805     -141.796295      -48.052887
 H         -55.346436     -142.383423      -45.984730
 H         -54.594761     -140.992569      -46.431690
 H         -53.634377     -144.101456      -49.270168
 H         -52.844051     -143.033600      -50.281059
 H         -56.153759     -141.428024      -48.259857
 H         -55.907372     -143.287979      -48.321785
 H         -55.201221     -142.425064      -50.295521
 H         -54.176960     -141.118134      -49.511833
