20
 generated by VMD
 C         -28.881126      -74.102226      -19.474165
 N         -29.969793      -74.368706      -19.621841
 H         -25.722271      -73.141685      -18.792809
 H         -27.858143      -73.506279      -19.606081
 C         -25.929506      -73.223351      -19.853342
 C         -25.373255      -74.376617      -20.680225
 C         -25.746714      -71.904495      -20.466040
 C         -25.879436      -74.239830      -22.168114
 C         -26.158525      -71.865944      -21.892792
 C         -25.535122      -72.843422      -22.745970
 H         -25.713900      -75.468117      -20.287121
 H         -24.270628      -74.286377      -20.727934
 H         -26.343782      -71.139061      -19.853647
 H         -24.729321      -71.552986      -20.567297
 H         -26.974241      -74.287537      -22.187416
 H         -25.467506      -75.005630      -22.844995
 H         -25.967474      -70.858414      -22.236130
 H         -27.159294      -71.908409      -21.912298
 H         -25.841053      -72.728798      -23.864510
 H         -24.451611      -72.671379      -22.685665
