20
 generated by VMD
 C         -49.416668     -133.003845      -46.899433
 N         -48.467762     -132.965149      -47.483913
 H         -48.267612     -134.457916      -44.102425
 H         -50.264198     -133.417969      -46.427261
 C         -49.252796     -134.805603      -43.944630
 C         -49.548618     -136.269943      -44.327736
 C         -50.318592     -134.055695      -43.210548
 C         -50.158836     -137.061676      -43.191502
 C         -50.876442     -134.908630      -41.947830
 C         -51.320572     -136.264297      -42.463322
 H         -48.652573     -136.819046      -44.768349
 H         -50.314255     -136.262161      -45.069038
 H         -49.834385     -133.095306      -42.713512
 H         -51.138630     -133.721512      -43.869644
 H         -49.357727     -137.238052      -42.446014
 H         -50.553581     -138.079834      -43.278095
 H         -51.609032     -134.259262      -41.548843
 H         -50.159576     -135.022110      -41.140671
 H         -51.515301     -136.755066      -41.435696
 H         -52.119781     -135.994461      -43.124218
