20
 generated by VMD
 C         -77.931793     -210.050781      -76.343460
 N         -77.236603     -211.003510      -76.183861
 H         -80.473839     -212.771057      -75.034302
 H         -78.545532     -209.242310      -76.517792
 C         -80.302704     -213.185852      -74.082687
 C         -78.872383     -213.340363      -73.676987
 C         -81.250542     -214.012314      -73.299866
 C         -78.664841     -213.011536      -72.058701
 C         -81.038879     -213.821594      -71.777245
 C         -79.607040     -213.886627      -71.258812
 H         -78.367668     -212.523468      -74.149727
 H         -78.521111     -214.377609      -73.997108
 H         -82.294304     -213.868301      -73.492455
 H         -81.104492     -215.091949      -73.664360
 H         -78.866760     -211.961548      -71.837013
 H         -77.591576     -213.096313      -71.906326
 H         -81.688499     -214.505737      -71.235451
 H         -81.401901     -212.711380      -71.661041
 H         -79.522987     -213.585999      -70.106483
 H         -79.262787     -214.917084      -71.371513
