20
 generated by VMD
 C         -50.681648     -129.066437      -42.636890
 N         -50.936966     -128.151398      -41.925545
 H         -48.226307     -128.114273      -40.731956
 H         -50.380241     -129.962448      -43.199177
 C         -47.230476     -127.564758      -40.750217
 C         -46.134270     -128.317368      -40.068729
 C         -47.092697     -126.211174      -41.179893
 C         -44.813301     -128.106888      -40.935619
 C         -45.841866     -126.029228      -41.967155
 C         -44.576435     -126.588196      -41.274948
 H         -46.369255     -129.371124      -40.054943
 H         -45.967205     -127.936661      -39.021942
 H         -47.986832     -126.102287      -41.766670
 H         -46.988911     -125.462173      -40.229847
 H         -45.022694     -128.509644      -41.904381
 H         -43.906036     -128.568176      -40.562744
 H         -45.592995     -124.969833      -42.060047
 H         -45.856163     -126.330284      -42.987774
 H         -43.568977     -126.508461      -41.733814
 H         -44.347462     -126.094872      -40.339142
