20
 generated by VMD
 C         -47.610687     -136.689163      -45.906223
 N         -47.007160     -136.208954      -46.848297
 H         -50.627407     -135.858002      -45.547306
 H         -48.266785     -137.100555      -45.111813
 C         -51.365677     -136.551102      -45.220512
 C         -51.819424     -137.616837      -46.203899
 C         -51.914745     -136.403427      -43.837524
 C         -52.024662     -138.930481      -45.482128
 C         -52.148315     -137.856354      -43.150795
 C         -52.821163     -138.838409      -44.108315
 H         -51.107239     -137.584259      -47.010380
 H         -52.890686     -137.362396      -46.524490
 H         -51.142910     -135.839020      -43.242596
 H         -52.870308     -135.886292      -43.931332
 H         -51.064754     -139.440292      -45.491070
 H         -52.634151     -139.658768      -46.147106
 H         -52.703362     -137.727356      -42.211224
 H         -51.198986     -138.377426      -42.797028
 H         -52.857414     -139.954590      -43.786518
 H         -53.798405     -138.497696      -44.521240
