20
 generated by VMD
 C         -78.082268     -203.412140      -69.524506
 N         -78.770271     -204.313660      -69.342934
 H         -75.808174     -202.231522      -67.781593
 H         -77.391602     -202.632080      -69.764122
 C         -75.009056     -201.765335      -68.304207
 C         -74.897728     -200.221924      -68.552750
 C         -73.787498     -202.450119      -68.780846
 C         -74.796532     -200.051102      -70.107445
 C         -72.918442     -201.785370      -69.849823
 C         -73.870407     -200.978516      -70.850761
 H         -74.002739     -199.742584      -68.125984
 H         -75.767319     -199.696228      -68.064285
 H         -73.193993     -202.551208      -67.867851
 H         -74.007751     -203.405197      -69.076492
 H         -74.566345     -198.987198      -70.342880
 H         -75.786537     -200.290970      -70.449066
 H         -72.343842     -202.571167      -70.404724
 H         -72.238434     -201.110336      -69.222000
 H         -73.147308     -200.499023      -71.470459
 H         -74.360802     -201.835831      -71.465752
