20
 generated by VMD
 C         -52.515392     -147.009964      -45.308716
 N         -53.418030     -147.386154      -44.720936
 H         -54.523323     -147.151764      -47.828510
 H         -51.722912     -146.760544      -45.984913
 C         -54.548527     -146.320862      -48.525085
 C         -53.303219     -146.208206      -49.367599
 C         -55.326267     -145.017303      -48.086597
 C         -53.390259     -145.000793      -50.334492
 C         -55.242191     -143.816528      -49.050541
 C         -53.816265     -143.717102      -49.592274
 H         -53.123909     -147.082230      -50.055748
 H         -52.461369     -146.059265      -48.738422
 H         -56.432076     -145.347427      -47.963737
 H         -54.944889     -144.557907      -47.210018
 H         -54.148918     -145.176666      -51.212200
 H         -52.300404     -144.953583      -50.556385
 H         -55.571037     -142.797211      -48.612804
 H         -55.764965     -144.032455      -49.895119
 H         -54.018417     -142.978043      -50.325218
 H         -53.119919     -143.341507      -48.897923
