20
 generated by VMD
 C         -18.547256      -49.960060       -9.666545
 N         -19.486549      -50.673603       -9.499683
 H         -16.289042      -47.190758      -10.079381
 H         -17.860416      -49.166145       -9.772011
 C         -16.674635      -47.827194      -10.891088
 C         -15.735586      -48.805202      -11.486598
 C         -17.551292      -47.089451      -11.875690
 C         -16.384703      -49.693367      -12.520707
 C         -17.960947      -47.921249      -13.156191
 C         -16.883921      -48.856777      -13.705456
 H         -15.139350      -49.448318      -10.768373
 H         -14.959836      -48.233871      -11.987385
 H         -18.458017      -46.697666      -11.405354
 H         -17.040972      -46.187782      -12.256400
 H         -17.257771      -50.201801      -12.083578
 H         -15.763186      -50.564274      -12.741215
 H         -18.220394      -47.232388      -14.023893
 H         -18.865057      -48.452328      -13.008915
 H         -17.439075      -49.482105      -14.445190
 H         -15.988915      -48.357475      -14.209010
