20
 generated by VMD
 C         -23.421761      -53.187298      -13.932008
 N         -24.017321      -53.082775      -14.867907
 H         -20.579681      -55.164284      -15.090272
 H         -22.774000      -53.546314      -12.931258
 C         -19.585878      -55.330517      -14.398490
 C         -19.090757      -54.063560      -13.882448
 C         -18.639660      -56.455368      -14.581604
 C         -18.172161      -54.196632      -12.712065
 C         -17.427404      -56.473976      -13.719912
 C         -17.009295      -55.186344      -12.916860
 H         -20.039904      -53.446484      -13.625549
 H         -18.460302      -53.588055      -14.734686
 H         -19.182135      -57.403477      -14.569448
 H         -18.299387      -56.317368      -15.681753
 H         -18.678791      -54.614819      -11.839271
 H         -17.806032      -53.196251      -12.427657
 H         -16.600090      -56.772552      -14.308719
 H         -17.517916      -57.273315      -12.937128
 H         -16.584761      -55.443668      -11.952974
 H         -16.174057      -54.713062      -13.384830
