20
 generated by VMD
 C         -38.765324     -109.811172      -35.936871
 N         -37.867920     -109.105354      -36.033848
 H         -42.165565     -110.661827      -37.166187
 H         -39.522263     -110.640022      -35.973980
 C         -42.071732     -111.027626      -36.130344
 C         -41.710300     -112.473938      -36.189888
 C         -42.347626     -110.300827      -34.949776
 C         -41.299595     -113.135796      -34.877407
 C         -41.606190     -110.930176      -33.697948
 C         -41.828220     -112.443047      -33.691956
 H         -41.017178     -112.793053      -37.031849
 H         -42.630177     -112.945015      -36.523674
 H         -41.968811     -109.325699      -34.989460
 H         -43.389248     -110.366013      -34.665466
 H         -40.197571     -113.245399      -34.913422
 H         -41.629890     -114.133736      -34.852131
 H         -42.098812     -110.522049      -32.814308
 H         -40.566936     -110.593475      -33.751461
 H         -41.260281     -112.845032      -32.807430
 H         -42.877052     -112.511925      -33.700119
