20
 generated by VMD
 C          -1.517647      -11.186692        1.559462
 N          -1.074571      -12.029885        1.008412
 H          -3.836789      -13.079448        0.192744
 H          -5.469130      -12.914272        0.749846
 C          -4.611372      -13.640388        0.804049
 C          -4.072715      -13.826012        2.264853
 C          -5.053404      -14.909992        0.143501
 C          -5.165751      -14.573018        3.088405
 C          -6.133477      -15.500697        0.995089
 C          -5.664214      -15.805300        2.415302
 H          -4.070970      -12.863455        2.784963
 H          -3.190950      -14.406843        2.317320
 H          -5.514142      -14.704437       -0.895690
 H          -4.107558      -15.544585       -0.047644
 H          -5.993952      -13.921977        3.166522
 H          -4.879475      -14.803138        4.119281
 H          -6.482394      -16.424414        0.526864
 H          -6.947934      -14.779769        1.079260
 H          -6.406139      -16.368540        3.038130
 H          -4.754215      -16.498835        2.307257
