20
 generated by VMD
 C         -24.092018      -69.805199      -16.736338
 N         -24.408276      -70.150681      -15.673322
 H         -23.902252      -67.290764      -18.676235
 H         -23.741289      -69.446327      -17.670107
 C         -24.403292      -67.889114      -19.472532
 C         -23.838633      -68.548943      -20.660711
 C         -25.894825      -67.586174      -19.397449
 C         -24.542984      -69.808182      -21.026707
 C         -26.755671      -68.848053      -19.746359
 C         -26.091835      -69.502129      -21.035791
 H         -22.867594      -68.871735      -20.536388
 H         -23.736958      -67.785057      -21.468739
 H         -25.941385      -67.162987      -18.341335
 H         -26.088045      -66.687820      -20.164253
 H         -24.331408      -70.583260      -20.315552
 H         -24.379925      -70.169853      -22.051929
 H         -27.811077      -68.598732      -19.801571
 H         -26.851429      -69.465530      -18.886202
 H         -26.573792      -70.446846      -21.338976
 H         -26.237226      -68.682907      -21.757828
