20
 generated by VMD
 C         -58.123554     -166.630066      -56.144413
 N         -58.135231     -167.338226      -55.252083
 H         -60.556679     -165.541901      -55.156162
 H         -58.219021     -165.847900      -56.887360
 C         -61.575703     -165.671082      -55.553890
 C         -61.812714     -166.967712      -56.463253
 C         -62.507603     -164.504303      -55.551586
 C         -63.262535     -167.238098      -56.440781
 C         -63.953327     -164.964081      -55.495533
 C         -64.265503     -166.038940      -56.576653
 H         -61.149452     -167.668930      -55.912910
 H         -61.464302     -166.636368      -57.468586
 H         -62.289185     -163.835098      -54.764240
 H         -62.414295     -163.841354      -56.479221
 H         -63.570686     -167.816223      -55.516415
 H         -63.574005     -168.027969      -57.196922
 H         -64.610039     -164.095856      -55.610779
 H         -64.139572     -165.485138      -54.372227
 H         -65.313660     -166.366837      -56.409859
 H         -64.115883     -165.566879      -57.555813
