20
 generated by VMD
 C         -19.815239      -62.062664      -17.722038
 N         -19.870537      -61.861820      -16.574066
 H         -21.925753      -64.600571      -16.743807
 H         -19.716993      -62.010464      -18.841347
 C         -22.954340      -64.823288      -16.972712
 C         -23.414791      -64.348007      -18.288830
 C         -24.059818      -65.301147      -16.083286
 C         -24.532928      -64.971954      -19.071690
 C         -25.256039      -65.880890      -16.879219
 C         -25.683016      -65.069534      -18.069578
 H         -22.608681      -64.305267      -18.925560
 H         -23.646782      -63.376965      -18.026602
 H         -23.743399      -66.100426      -15.369353
 H         -24.512884      -64.367027      -15.647402
 H         -24.248446      -65.942146      -19.521971
 H         -24.690445      -64.359230      -19.942429
 H         -26.130356      -65.986732      -16.156675
 H         -25.136408      -66.964851      -17.086397
 H         -26.471231      -65.683556      -18.548506
 H         -26.202532      -64.073341      -17.970352
