20
 generated by VMD
 C         -47.512718     -138.179932      -45.764587
 N         -47.184425     -138.024551      -46.867031
 H         -50.630276     -137.422882      -44.797668
 H         -47.910328     -138.544479      -44.828403
 C         -51.400383     -138.166245      -44.974983
 C         -51.497169     -138.932663      -46.283352
 C         -52.586052     -137.995911      -44.099060
 C         -52.658714     -139.877243      -46.378372
 C         -53.715279     -138.998489      -44.346893
 C         -53.988869     -139.249435      -45.834953
 H         -50.406380     -139.253845      -46.383091
 H         -51.571712     -138.253235      -47.143559
 H         -52.446445     -137.749756      -43.050880
 H         -52.889580     -136.984543      -44.395813
 H         -52.467491     -140.898392      -45.850132
 H         -52.802776     -140.281189      -47.400951
 H         -54.526123     -138.806778      -43.667488
 H         -53.461212     -140.104477      -43.949074
 H         -54.734989     -139.919678      -46.097744
 H         -54.207157     -138.326385      -46.395084
