20
 generated by VMD
 C         -12.053109      -41.520298       -7.554891
 N         -11.667245      -40.740837       -6.876255
 H         -13.991940      -40.750320       -8.364913
 H         -15.186634      -40.101440       -9.400467
 C         -14.837757      -41.069408       -8.956917
 C         -15.960382      -41.745888       -8.196477
 C         -14.265040      -42.012768       -9.994685
 C         -17.095444      -42.170502       -9.098645
 C         -15.320848      -42.541546      -10.978230
 C         -16.486864      -43.128029      -10.129899
 H         -16.298367      -41.105091       -7.370904
 H         -15.451257      -42.661331       -7.725438
 H         -13.497100      -41.444889      -10.556432
 H         -13.772468      -42.919781       -9.432120
 H         -17.472885      -41.328693       -9.732577
 H         -17.850929      -42.721287       -8.495025
 H         -14.979022      -43.338615      -11.700034
 H         -15.694474      -41.766853      -11.597857
 H         -17.290533      -43.447186      -10.761029
 H         -16.145117      -44.098083       -9.740408
