20
 generated by VMD
 C         -45.107998     -122.815445      -35.402054
 N         -45.486179     -123.899422      -35.108990
 H         -45.195671     -122.714012      -38.977219
 H         -44.519146     -121.886276      -35.665058
 C         -44.887089     -121.763687      -39.315929
 C         -43.470459     -121.419617      -39.602661
 C         -45.950008     -120.698647      -39.481865
 C         -43.295586     -120.588135      -40.925297
 C         -45.811951     -120.030403      -40.833721
 C         -44.352924     -119.503113      -41.061279
 H         -42.937016     -122.365074      -39.605206
 H         -43.107746     -120.685020      -38.751976
 H         -46.855099     -121.262886      -39.451900
 H         -46.005188     -119.964874      -38.729469
 H         -43.508297     -121.336899      -41.802780
 H         -42.337692     -120.041122      -40.944889
 H         -46.375057     -119.053566      -40.981464
 H         -46.060589     -120.754921      -41.676041
 H         -44.202053     -119.204575      -42.089550
 H         -44.066017     -118.625740      -40.543156
