20
 generated by VMD
 C         -11.262147      -33.831020       -9.329236
 N         -11.324316      -34.017944       -8.238719
 H         -11.440441      -37.485836       -8.070889
 H         -12.156598      -36.661243       -6.612652
 C         -12.263969      -37.536285       -7.287256
 C         -12.190988      -38.899014       -6.587671
 C         -13.633795      -37.182098       -7.957348
 C         -13.316532      -38.968441       -5.496421
 C         -14.801450      -37.433834       -6.960985
 C         -14.681540      -38.780319       -6.155900
 H         -11.253987      -38.983177       -6.023345
 H         -12.239812      -39.704128       -7.287833
 H         -13.537566      -36.098824       -8.281974
 H         -13.735481      -37.837769       -8.800853
 H         -13.216531      -38.239735       -4.678193
 H         -13.232282      -39.927265       -5.116489
 H         -15.799694      -37.447937       -7.579044
 H         -14.908412      -36.616539       -6.247630
 H         -15.400300      -38.745205       -5.276953
 H         -15.013455      -39.643742       -6.767437
