20
 generated by VMD
 C         -44.207985     -121.763603      -35.900017
 N         -43.791080     -120.683258      -35.787334
 H         -44.864754     -122.609253      -39.401390
 H         -44.355568     -122.834480      -36.127689
 C         -44.812103     -121.466568      -39.636780
 C         -43.311478     -120.985283      -39.640667
 C         -45.929607     -120.617340      -39.040386
 C         -43.331127     -119.582863      -40.197556
 C         -45.723099     -119.198891      -39.473595
 C         -44.320782     -118.702599      -39.402485
 H         -42.664684     -121.688927      -40.226578
 H         -42.986698     -121.021637      -38.536736
 H         -46.949398     -120.953773      -39.289028
 H         -45.764660     -120.860229      -37.992256
 H         -43.599236     -119.612129      -41.268528
 H         -42.370167     -119.098572      -40.187798
 H         -46.432304     -118.515701      -38.909130
 H         -46.110889     -119.237526      -40.485321
 H         -44.240376     -117.680702      -39.624004
 H         -44.045811     -118.650040      -38.361145
