20
 generated by VMD
 C         -12.680014      -28.621561       -5.956507
 N         -13.076941      -27.675549       -5.529371
 H         -11.624382      -31.459118       -3.800455
 H         -11.242207      -29.934225       -4.668259
 C         -10.837953      -30.719246       -4.059748
 C          -9.813066      -31.498327       -4.938495
 C         -10.177706      -30.150091       -2.804236
 C          -8.604907      -30.600189       -5.293829
 C          -8.923110      -29.258465       -3.155984
 C          -7.915520      -29.979185       -4.112110
 H         -10.358267      -31.864555       -5.752909
 H          -9.499434      -32.419235       -4.387926
 H         -10.925628      -29.526894       -2.272060
 H          -9.933681      -30.946823       -2.141848
 H          -8.839396      -29.918848       -6.081725
 H          -7.854454      -31.210430       -5.754933
 H          -8.363194      -29.005642       -2.246308
 H          -9.294630      -28.338057       -3.655417
 H          -7.044164      -29.245234       -4.371167
 H          -7.278028      -30.726906       -3.592330
