20
 generated by VMD
 C         -79.517029     -205.269012      -70.999207
 N         -80.654488     -205.523880      -70.978127
 H         -76.958435     -202.857544      -69.214874
 H         -78.513107     -205.126266      -70.779388
 C         -75.945206     -202.928497      -69.441429
 C         -75.351868     -202.137131      -70.650185
 C         -75.188766     -204.164413      -69.086693
 C         -73.967941     -201.704880      -70.099396
 C         -73.678345     -204.142242      -69.210068
 C         -73.235992     -203.078079      -70.261642
 H         -76.053299     -201.340393      -70.820427
 H         -75.346748     -202.813110      -71.563652
 H         -75.522079     -204.465027      -68.107506
 H         -75.519058     -204.981766      -69.682037
 H         -73.852806     -201.267960      -69.080185
 H         -73.394150     -200.974197      -70.784492
 H         -73.220383     -205.116394      -69.479790
 H         -73.361626     -203.933426      -68.149536
 H         -72.140404     -202.835266      -70.091423
 H         -73.346687     -203.503738      -71.251488
