20
 generated by VMD
 C         -11.005555      -40.571987       -7.304731
 N         -11.572761      -40.350712       -6.351437
 H         -13.716756      -40.667786       -8.677056
 H         -15.271363      -40.009766       -9.243267
 C         -14.699589      -40.974003       -9.112641
 C         -15.573025      -41.678158       -8.059288
 C         -14.477480      -41.728485      -10.438674
 C         -16.899017      -42.054596       -8.763629
 C         -15.782635      -42.317677      -10.962694
 C         -16.694996      -42.990685       -9.957502
 H         -15.841866      -41.103882       -7.224335
 H         -15.126571      -42.589378       -7.735367
 H         -14.042780      -41.072117      -11.138320
 H         -13.815592      -42.563244      -10.133568
 H         -17.290375      -41.097542       -9.149355
 H         -17.510588      -42.543091       -7.971891
 H         -15.426229      -43.060509      -11.784575
 H         -16.241783      -41.557236      -11.513119
 H         -17.671169      -43.286480      -10.382861
 H         -16.261351      -43.982487       -9.628898
