20
 generated by VMD
 C          -5.988437      -22.146973        1.954356
 N          -6.551778      -22.907345        2.556783
 H          -5.267812      -19.338379       -0.771422
 H          -6.705498      -20.343161       -0.260953
 C          -6.135400      -19.898027       -1.073204
 C          -5.670635      -21.080681       -1.977458
 C          -7.186377      -19.044518       -1.884362
 C          -6.892265      -21.879564       -2.409825
 C          -8.397854      -19.885059       -2.333185
 C          -7.871831      -21.039515       -3.183946
 H          -4.967571      -21.754072       -1.483325
 H          -5.148521      -20.627939       -2.859278
 H          -7.356390      -18.129126       -1.205699
 H          -6.666572      -18.559900       -2.786261
 H          -7.376370      -22.407383       -1.559584
 H          -6.537269      -22.692162       -3.084214
 H          -8.973270      -19.211901       -2.969834
 H          -9.092370      -20.249247       -1.566272
 H          -8.739384      -21.718245       -3.410682
 H          -7.469297      -20.763115       -4.195117
