20
 generated by VMD
 C         -40.368729     -118.525818      -35.038193
 N         -39.424351     -117.812798      -35.025822
 H         -43.065132     -116.998505      -36.181171
 H         -40.953239     -119.385635      -34.972702
 C         -43.573856     -116.879379      -37.093025
 C         -42.849964     -117.112564      -38.404873
 C         -44.912495     -116.123337      -37.284439
 C         -43.789207     -117.862419      -39.394699
 C         -45.854832     -117.026558      -38.066135
 C         -45.205902     -117.286636      -39.467163
 H         -42.007679     -117.824005      -38.399521
 H         -42.561718     -116.153664      -38.916245
 H         -45.190174     -115.933853      -36.208122
 H         -44.808918     -115.201584      -37.797478
 H         -43.952282     -118.845123      -38.992325
 H         -43.431915     -117.936127      -40.436199
 H         -46.889858     -116.488892      -37.941841
 H         -46.074043     -118.037895      -37.640003
 H         -46.016190     -117.839149      -40.016571
 H         -45.171715     -116.247581      -39.910809
