20
 generated by VMD
 C         -22.357347      -67.561035      -16.180321
 N         -21.220848      -67.381638      -16.066191
 H         -23.823942      -65.858788      -18.016085
 H         -23.467405      -67.777176      -15.981844
 C         -24.555620      -66.269180      -18.676792
 C         -23.873705      -66.914139      -19.869217
 C         -25.969585      -66.429436      -18.392157
 C         -24.482466      -68.097397      -20.445107
 C         -26.410902      -67.758812      -18.841173
 C         -25.983438      -68.165375      -20.272528
 H         -22.702843      -66.968094      -19.759172
 H         -23.875408      -66.059036      -20.501364
 H         -26.199087      -66.174828      -17.354090
 H         -26.614653      -65.737953      -18.958973
 H         -24.112999      -69.005241      -20.037630
 H         -24.197060      -68.068489      -21.486185
 H         -27.503309      -67.842018      -18.721798
 H         -25.907417      -68.496597      -18.158117
 H         -26.216866      -69.190933      -20.547844
 H         -26.365490      -67.414307      -20.982803
