20
 generated by VMD
 C          -2.467631      -17.998991        2.501340
 N          -1.853717      -17.075220        2.406422
 H          -5.346889      -18.262739        1.017545
 H          -5.149726      -19.361450       -0.390202
 C          -5.807093      -18.566263        0.056757
 C          -5.866716      -17.333614       -0.867998
 C          -7.223854      -19.049484        0.407640
 C          -6.730916      -17.695755       -2.121689
 C          -7.973588      -19.568062       -0.799681
 C          -8.079945      -18.365307       -1.730101
 H          -4.852258      -17.046581       -1.207867
 H          -6.240137      -16.470413       -0.266457
 H          -7.207054      -19.791540        1.241407
 H          -7.772264      -18.200275        0.982226
 H          -6.087424      -18.385864       -2.767845
 H          -6.860780      -16.804729       -2.834846
 H          -8.911325      -19.945251       -0.455073
 H          -7.530328      -20.430849       -1.303755
 H          -8.686447      -18.663877       -2.605413
 H          -8.627617      -17.575310       -1.226550
