20
 generated by VMD
 C         -21.965899      -55.311836      -17.369503
 N         -22.203300      -55.475040      -18.460396
 H         -22.114115      -57.027336      -14.503519
 H         -21.862131      -54.642052      -16.392527
 C         -21.175390      -57.639793      -14.202140
 C         -20.945393      -58.309113      -12.816247
 C         -20.066315      -57.890999      -15.271657
 C         -20.786783      -59.857365      -13.068798
 C         -20.039913      -59.402454      -15.539228
 C         -19.832216      -60.179916      -14.244280
 H         -21.838818      -58.182114      -12.205676
 H         -20.158834      -57.902691      -12.258124
 H         -20.308174      -57.511406      -16.254177
 H         -19.110025      -57.369675      -14.911070
 H         -21.837639      -60.186081      -13.332054
 H         -20.481438      -60.435440      -12.156751
 H         -19.150829      -59.491459      -16.192867
 H         -20.952116      -59.723839      -16.111385
 H         -20.020432      -61.255836      -14.490051
 H         -18.760122      -60.053852      -14.052308
