20
 generated by VMD
 C         -12.403869      -27.440845       -4.665073
 N         -13.230803      -28.179110       -4.832662
 H         -10.812391      -30.246189       -2.775821
 H         -10.793803      -28.705177       -3.655898
 C         -10.163576      -29.537643       -3.308369
 C          -9.531232      -30.224588       -4.494006
 C          -9.153757      -28.870945       -2.440862
 C          -8.659235      -29.331772       -5.251243
 C          -8.131392      -27.977049       -3.167060
 C          -7.630669      -28.675953       -4.437201
 H         -10.348788      -30.592348       -5.136679
 H          -8.928192      -31.074949       -4.117302
 H          -9.654963      -28.328833       -1.625209
 H          -8.591971      -29.592684       -1.913490
 H          -9.284057      -28.523327       -5.696984
 H          -8.095685      -29.913572       -6.050259
 H          -7.284608      -27.713913       -2.522436
 H          -8.637174      -27.039658       -3.478710
 H          -7.083194      -27.976170       -5.088736
 H          -6.996588      -29.485514       -4.178963
