20
 generated by VMD
 C         -40.361794      -99.782959      -29.142384
 N         -39.660465     -100.114998      -28.312010
 H         -37.424915      -99.471786      -30.653681
 H         -41.064075      -99.286995      -29.891607
 C         -36.425575      -99.030876      -30.755072
 C         -35.930614      -98.946159      -32.167446
 C         -35.398930      -98.568008      -29.655111
 C         -34.609253      -98.067596      -32.445538
 C         -34.298767      -97.606438      -30.008251
 C         -33.648415      -98.066963      -31.257627
 H         -36.835316      -98.579597      -32.758266
 H         -35.716320      -99.968109      -32.436615
 H         -35.861362      -97.996819      -28.801945
 H         -34.918858      -99.501358      -29.278858
 H         -35.075272      -97.080238      -32.408226
 H         -34.154362      -98.305504      -33.441978
 H         -33.474926      -97.543976      -29.285482
 H         -34.710049      -96.617569      -30.101330
 H         -32.863396      -97.393906      -31.486221
 H         -33.258575      -99.135902      -31.147135
