20
 generated by VMD
 C         -61.175198     -156.192795      -55.016159
 N         -60.327278     -155.708084      -55.549850
 H         -59.604149     -156.354279      -51.770420
 H         -62.080521     -156.559235      -54.518967
 C         -58.581459     -156.480240      -51.566742
 C         -57.845531     -155.215134      -51.262638
 C         -57.899498     -157.778412      -51.969860
 C         -56.549458     -155.551819      -50.468365
 C         -56.556614     -157.877502      -51.242031
 C         -55.701660     -156.541000      -51.193546
 H         -58.658344     -154.599823      -50.745087
 H         -57.600613     -154.694519      -52.181309
 H         -58.705982     -158.579025      -51.689846
 H         -57.732246     -157.763199      -53.038750
 H         -56.908848     -155.847336      -49.559334
 H         -55.930702     -154.640839      -50.443176
 H         -55.893185     -158.711670      -51.706665
 H         -56.835285     -158.253189      -50.230938
 H         -54.796730     -156.690826      -50.626602
 H         -55.465778     -156.073303      -52.224579
