20
 generated by VMD
 C         -40.724514     -103.927216      -37.197792
 N         -40.350674     -104.764938      -36.505405
 H         -39.598606     -106.544838      -34.599632
 H         -41.186028     -103.053871      -37.605556
 C         -39.582397     -107.023247      -33.662571
 C         -38.411007     -106.444832      -32.950710
 C         -39.867085     -108.433014      -33.381592
 C         -38.016186     -106.934227      -31.588856
 C         -39.596645     -108.856201      -31.881626
 C         -38.224602     -108.448158      -31.465681
 H         -38.409103     -105.305275      -32.936760
 H         -37.551262     -106.659615      -33.662979
 H         -40.941750     -108.698944      -33.512466
 H         -39.293133     -109.053833      -34.103821
 H         -38.529640     -106.373116      -30.752420
 H         -36.931969     -106.779030      -31.442776
 H         -39.695843     -109.944374      -31.887329
 H         -40.414318     -108.467712      -31.157690
 H         -38.072109     -108.830795      -30.373621
 H         -37.636482     -109.088905      -32.020630
