20
 generated by VMD
 C         -29.792728      -79.441330      -26.324814
 N         -30.586391      -78.745926      -25.871349
 H         -28.514496      -83.094810      -25.646818
 H         -29.218679      -80.021515      -26.959869
 C         -28.938063      -83.076157      -24.677088
 C         -28.534754      -82.044456      -23.644987
 C         -30.018549      -84.133080      -24.225571
 C         -29.751221      -81.460716      -22.924185
 C         -31.006128      -83.560806      -23.258385
 C         -30.456354      -82.674133      -22.205435
 H         -28.012152      -81.189835      -24.121542
 H         -27.873541      -82.544289      -22.975040
 H         -30.548908      -84.586639      -25.168112
 H         -29.503012      -84.918098      -23.663795
 H         -30.358891      -80.903854      -23.640181
 H         -29.607758      -80.893356      -22.066534
 H         -31.557571      -84.485504      -22.822071
 H         -31.739424      -83.090080      -23.901398
 H         -31.362421      -82.268921      -21.675821
 H         -29.709156      -83.263580      -21.588167
