20
 generated by VMD
 C         -30.875656      -78.471771      -25.595821
 N         -31.272617      -77.445908      -25.092667
 H         -29.511379      -77.444496      -23.022173
 H         -30.547184      -79.088112      -26.360228
 C         -28.826897      -78.225830      -22.696306
 C         -27.375324      -78.214325      -23.070776
 C         -29.517857      -79.377754      -22.080053
 C         -26.544655      -79.313797      -22.384182
 C         -28.620556      -80.152420      -21.209646
 C         -27.437933      -80.585670      -22.120634
 H         -26.981689      -77.267403      -22.929487
 H         -27.231401      -78.259148      -24.133078
 H         -30.334742      -78.972260      -21.514038
 H         -29.941563      -79.972130      -22.936773
 H         -26.196100      -79.067711      -21.350630
 H         -25.671968      -79.504738      -22.995937
 H         -29.189768      -81.050674      -20.869564
 H         -28.273031      -79.711456      -20.359715
 H         -26.819237      -81.383614      -21.557125
 H         -27.888283      -81.079620      -22.995985
