20
 generated by VMD
 C         -13.787654      -28.736153       -6.974401
 N         -13.234850      -28.878735       -7.936708
 H         -11.947154      -30.724100       -4.977908
 H         -10.563488      -29.854641       -4.409884
 C         -10.918192      -30.831409       -4.569602
 C         -10.022005      -31.479198       -5.629111
 C         -10.907367      -31.542576       -3.153218
 C          -8.664130      -31.909058       -5.014907
 C          -9.585546      -32.133282       -2.665043
 C          -8.721836      -32.771091       -3.738320
 H          -9.997387      -30.781849       -6.438644
 H         -10.529902      -32.426483       -6.028385
 H         -11.306025      -30.850460       -2.361822
 H         -11.613829      -32.374592       -3.259699
 H          -8.189322      -30.945465       -4.808772
 H          -8.043817      -32.402096       -5.741666
 H          -9.706020      -32.861755       -1.828924
 H          -8.941481      -31.327349       -2.312245
 H          -7.756721      -33.031372       -3.320155
 H          -9.166841      -33.667889       -4.019243
