20
 generated by VMD
 C         -41.824848     -102.072433      -33.804478
 N         -40.749905     -101.892006      -34.168190
 H         -39.248039     -104.013992      -32.794437
 H         -42.850044     -102.126480      -33.564087
 C         -38.301975     -103.839363      -32.203964
 C         -37.045746     -103.517494      -33.142086
 C         -38.063519     -104.518776      -30.893173
 C         -35.835590     -103.080673      -32.425152
 C         -36.817665     -103.999817      -30.144053
 C         -35.594040     -103.903069      -31.139482
 H         -37.424599     -102.743629      -33.876213
 H         -36.833118     -104.438309      -33.650185
 H         -38.850655     -104.327019      -30.180569
 H         -38.076836     -105.606529      -31.129841
 H         -36.034538     -102.042511      -32.129646
 H         -34.913094     -103.085754      -33.002022
 H         -36.619629     -104.683617      -29.347980
 H         -37.140717     -103.012062      -29.638338
 H         -34.799274     -103.373177      -30.715097
 H         -35.147896     -104.884132      -31.325655
