20
 generated by VMD
 C         -31.159981      -77.253014      -25.090919
 N         -32.090866      -77.068855      -25.721132
 H         -29.216221      -76.938484      -22.480247
 H         -30.557652      -77.456116      -24.278368
 C         -28.604910      -77.828316      -22.323664
 C         -27.476015      -78.011200      -23.236294
 C         -28.898932      -78.795151      -21.253029
 C         -26.241579      -78.654861      -22.522697
 C         -27.647974      -79.637344      -20.690004
 C         -26.642551      -79.908882      -21.786730
 H         -27.202364      -76.995552      -23.551552
 H         -27.831783      -78.530029      -24.132183
 H         -29.397507      -78.243782      -20.354973
 H         -29.650112      -79.504066      -21.535252
 H         -25.879591      -77.890396      -21.837187
 H         -25.418203      -78.937576      -23.181492
 H         -28.036718      -80.577225      -20.038090
 H         -27.186588      -78.886139      -19.958464
 H         -25.826759      -80.503685      -21.326433
 H         -27.065805      -80.614502      -22.440979
