20
 generated by VMD
 C         -40.866032     -103.970474      -36.881367
 N         -41.102741     -104.930023      -36.270802
 H         -39.035347     -105.545219      -34.263630
 H         -40.497608     -103.312927      -37.634544
 C         -38.923954     -106.188797      -33.345142
 C         -37.642673     -105.920753      -32.657146
 C         -39.713360     -107.526733      -33.334892
 C         -37.655769     -106.704239      -31.327980
 C         -39.572056     -108.280846      -32.005741
 C         -38.137913     -108.257744      -31.562109
 H         -37.599823     -104.797867      -32.402424
 H         -36.905102     -106.120895      -33.432549
 H         -40.778248     -107.327194      -33.621578
 H         -39.206413     -107.988342      -34.119713
 H         -38.343300     -106.257492      -30.592089
 H         -36.721725     -106.810295      -30.757065
 H         -39.828781     -109.267677      -32.428989
 H         -40.268623     -107.875809      -31.275387
 H         -38.003338     -108.779335      -30.635075
 H         -37.503887     -108.740135      -32.370316
