20
 generated by VMD
 C         -77.979340     -203.327362      -69.582977
 N         -78.601456     -204.248962      -69.189026
 H         -75.962334     -202.143845      -68.180519
 H         -77.450127     -202.396561      -69.763847
 C         -74.890114     -201.706818      -68.348740
 C         -74.887321     -200.153488      -68.583725
 C         -73.748413     -202.527893      -68.783554
 C         -74.841599     -199.930344      -70.102768
 C         -72.988205     -201.704498      -69.753448
 C         -73.990585     -200.985199      -70.788651
 H         -73.997414     -199.711594      -68.220352
 H         -75.729919     -199.627518      -68.009346
 H         -73.180969     -202.904694      -67.962807
 H         -74.116776     -203.314636      -69.317505
 H         -74.387337     -198.931091      -70.185829
 H         -75.870613     -199.896667      -70.480011
 H         -72.423775     -202.489685      -70.334381
 H         -72.329514     -200.960510      -69.186890
 H         -73.319420     -200.592499      -71.481476
 H         -74.533386     -201.867508      -71.276039
