20
 generated by VMD
 C         -36.664810      -98.180199      -26.859215
 N         -37.810959      -98.334030      -26.783274
 H         -36.457867      -96.311768      -28.933559
 H         -35.525749      -98.052582      -26.851460
 C         -35.456345      -96.333488      -29.419262
 C         -35.494137      -97.082550      -30.745888
 C         -34.451645      -95.376968      -29.026508
 C         -35.094395      -96.138229      -31.903215
 C         -34.121700      -94.430565      -30.180315
 C         -33.976662      -95.248474      -31.543798
 H         -36.485306      -97.469460      -30.936188
 H         -34.731430      -97.924698      -30.779503
 H         -34.905186      -94.689720      -28.256969
 H         -33.711853      -95.963272      -28.466478
 H         -35.917759      -95.488663      -32.244629
 H         -34.766312      -96.737625      -32.839821
 H         -33.108368      -94.015640      -29.837975
 H         -34.772427      -93.571136      -30.155197
 H         -33.542114      -94.599548      -32.419636
 H         -33.115200      -96.060646      -31.329679
