20
 generated by VMD
 C         -57.713390     -165.530609      -56.512173
 N         -57.761074     -166.624283      -56.282413
 H         -60.580799     -165.063721      -54.356655
 H         -57.785652     -164.439072      -56.637909
 C         -61.574844     -165.180374      -54.790699
 C         -61.841045     -166.612488      -55.248817
 C         -62.242844     -164.056580      -55.466343
 C         -63.325413     -166.797699      -55.426186
 C         -63.698448     -164.459671      -55.757595
 C         -63.870628     -165.813385      -56.414688
 H         -61.492989     -167.533173      -54.613659
 H         -61.328949     -166.961411      -56.150063
 H         -62.231483     -163.243851      -54.786057
 H         -61.805752     -163.736252      -56.465981
 H         -63.842545     -166.541702      -54.417160
 H         -63.568123     -167.875946      -55.677620
 H         -64.185974     -163.541260      -56.274925
 H         -64.178032     -164.480988      -54.795048
 H         -64.972832     -165.937180      -56.598911
 H         -63.394241     -165.676987      -57.398018
