20
 generated by VMD
 C         -61.154236     -156.067978      -54.635662
 N         -60.593761     -156.053833      -55.638176
 H         -59.442623     -155.618027      -51.613655
 H         -61.559792     -156.118805      -53.625542
 C         -58.428608     -155.896057      -51.292923
 C         -57.602253     -154.801727      -50.745075
 C         -57.801006     -156.986099      -52.161732
 C         -56.346245     -155.440292      -50.145039
 C         -56.357368     -157.436325      -51.650883
 C         -55.521214     -156.219635      -51.106384
 H         -58.165035     -154.330002      -49.894398
 H         -57.376926     -154.068939      -51.597370
 H         -58.435734     -157.905685      -52.309151
 H         -57.656891     -156.553772      -53.205551
 H         -56.515797     -155.900681      -49.081203
 H         -55.712452     -154.544815      -49.745171
 H         -55.669136     -158.076385      -52.266243
 H         -56.553089     -158.111908      -50.729919
 H         -54.585850     -156.653427      -50.529900
 H         -55.174805     -155.582153      -51.868301
