20
 generated by VMD
 C         -49.704800     -127.287224      -40.017696
 N         -49.189190     -126.773163      -39.126789
 H         -46.885258     -126.889809      -42.153099
 H         -49.894428     -127.842751      -40.931114
 C         -46.378422     -126.088493      -41.511948
 C         -45.248554     -126.524796      -40.498585
 C         -46.734074     -124.662918      -41.338848
 C         -44.051952     -125.601181      -40.483677
 C         -45.607399     -123.705475      -41.424847
 C         -44.488571     -124.132385      -40.533897
 H         -44.981838     -127.685066      -40.634750
 H         -45.674698     -126.467117      -39.487473
 H         -47.538662     -124.418770      -42.043373
 H         -47.383297     -124.456360      -40.416679
 H         -43.354828     -125.695763      -41.342041
 H         -43.416519     -125.721855      -39.589733
 H         -45.862888     -122.714355      -41.016308
 H         -45.291828     -123.412521      -42.365200
 H         -43.597164     -123.502655      -40.607185
 H         -44.886990     -124.005646      -39.497707
