20
 generated by VMD
 C         -78.759399     -204.351242      -70.646423
 N         -79.870056     -204.391373      -70.330734
 H         -76.609787     -203.270294      -68.496323
 H         -77.682404     -204.261078      -70.734055
 C         -75.702911     -202.942200      -68.885002
 C         -75.609764     -201.685394      -69.615303
 C         -74.401672     -203.751297      -68.890091
 C         -74.756050     -201.762207      -70.853645
 C         -73.098557     -202.913376      -69.156906
 C         -73.310471     -201.901886      -70.272018
 H         -75.173607     -200.944778      -68.976540
 H         -76.587540     -201.311691      -69.927338
 H         -74.311295     -204.202347      -67.939293
 H         -74.420647     -204.484421      -69.605583
 H         -74.852982     -200.933167      -71.511696
 H         -75.039680     -202.658798      -71.427002
 H         -72.228249     -203.630875      -69.488411
 H         -72.759682     -202.337234      -68.243408
 H         -73.075623     -200.912262      -69.955864
 H         -72.624222     -202.010880      -71.136475
