20
 generated by VMD
 C         -57.103008     -163.863083      -56.710983
 N         -57.259541     -162.825653      -57.280815
 H         -60.099110     -164.047134      -54.292450
 H         -56.974854     -164.836655      -56.200260
 C         -60.909504     -164.651321      -54.563290
 C         -61.618839     -165.399857      -53.493866
 C         -61.471172     -164.567184      -55.951950
 C         -62.963448     -164.573029      -53.346889
 C         -62.824810     -163.793976      -55.851849
 C         -63.745796     -164.432465      -54.705105
 H         -61.128830     -165.417191      -52.473618
 H         -61.838379     -166.390579      -53.898216
 H         -60.809864     -163.973938      -56.616383
 H         -61.553150     -165.631851      -56.450752
 H         -62.773567     -163.517502      -53.070457
 H         -63.570663     -164.890274      -52.456161
 H         -63.281853     -163.819626      -56.799820
 H         -62.561249     -162.760925      -55.596172
 H         -64.584846     -163.802124      -54.623047
 H         -64.144806     -165.311356      -55.091766
