20
 generated by VMD
 C         -48.216194     -140.515152      -45.630714
 N         -47.073639     -140.146286      -45.562778
 H         -51.061153     -138.891541      -45.824593
 H         -49.298080     -140.539780      -45.702446
 C         -52.081654     -139.196457      -45.870907
 C         -52.370659     -139.382919      -47.307442
 C         -53.105316     -139.444092      -44.781258
 C         -53.242489     -140.579971      -47.531479
 C         -54.035389     -140.534744      -45.248665
 C         -54.506397     -140.553131      -46.634380
 H         -51.363159     -139.661469      -47.826698
 H         -52.795235     -138.420044      -47.628887
 H         -52.543041     -139.712112      -43.828213
 H         -53.729549     -138.543274      -44.555508
 H         -52.643936     -141.465881      -47.422089
 H         -53.621372     -140.587570      -48.513836
 H         -54.920704     -140.488190      -44.665974
 H         -53.650925     -141.600433      -45.111992
 H         -55.156982     -141.341309      -46.790668
 H         -55.059181     -139.758636      -47.021278
