20
 generated by VMD
 C         -22.525963      -55.204601      -17.239609
 N         -23.034267      -54.659809      -18.078108
 H         -20.197756      -56.018223      -14.301670
 H         -22.278753      -55.985638      -16.595266
 C         -20.256292      -57.060192      -14.280879
 C         -20.718197      -57.688557      -12.993727
 C         -19.254168      -57.834274      -15.139278
 C         -20.903532      -59.209908      -13.165413
 C         -19.423872      -59.311775      -15.124202
 C         -19.784338      -59.847191      -13.808382
 H         -21.726606      -57.354069      -12.791215
 H         -20.063515      -57.504627      -12.113115
 H         -19.234274      -57.455799      -16.163322
 H         -18.185671      -57.650253      -14.712248
 H         -21.883192      -59.509422      -13.556228
 H         -20.908895      -59.495060      -12.078338
 H         -18.503176      -59.785278      -15.444029
 H         -20.108421      -59.568035      -15.962221
 H         -19.965752      -60.870739      -13.977171
 H         -18.858660      -59.767464      -13.237117
