20
 generated by VMD
 C         -13.963122      -28.762131       -7.214930
 N         -13.272382      -28.921036       -8.080600
 H         -11.773889      -30.399897       -4.564089
 H         -10.220661      -29.876760       -3.939427
 C         -10.729407      -30.769508       -4.335550
 C         -10.012455      -31.491737       -5.539554
 C         -11.017217      -31.807863       -3.263088
 C          -8.613699      -32.038338       -5.020187
 C          -9.659783      -32.212513       -2.699998
 C          -8.841946      -32.945198       -3.817136
 H          -9.779566      -30.879658       -6.464950
 H         -10.677040      -32.311497       -5.826781
 H         -11.610257      -31.386372       -2.417819
 H         -11.592748      -32.672813       -3.638698
 H          -7.909799      -31.168419       -4.857513
 H          -8.196913      -32.599949       -5.897134
 H          -9.847332      -32.827724       -1.871309
 H          -9.105370      -31.271322       -2.334272
 H          -7.891972      -33.363407       -3.432082
 H          -9.440458      -33.869827       -4.079680
