20
 generated by VMD
 C         -68.597496     -185.426727      -67.104645
 N         -67.660324     -185.079041      -66.526299
 H         -69.360863     -187.432297      -64.960213
 H         -69.522034     -185.694824      -67.597900
 C         -69.604515     -187.191437      -63.908669
 C         -70.028351     -185.818802      -63.657036
 C         -69.703918     -188.352768      -62.976608
 C         -69.716522     -185.351746      -62.221134
 C         -69.685005     -187.923111      -61.474579
 C         -70.145233     -186.347504      -61.198177
 H         -71.069794     -185.767593      -63.924484
 H         -69.399101     -185.243134      -64.365051
 H         -70.679054     -188.752228      -63.155460
 H         -68.869217     -189.092621      -63.035797
 H         -70.212479     -184.410004      -62.080868
 H         -68.576180     -185.267792      -62.076229
 H         -68.730797     -188.012115      -61.043381
 H         -70.223450     -188.622269      -60.904892
 H         -71.211708     -186.578461      -61.273361
 H         -70.001320     -185.969955      -60.136562
