20
 generated by VMD
 C         -50.957264     -127.690048      -40.978386
 N         -51.474243     -128.459473      -41.698425
 H         -47.602768     -127.563049      -40.680233
 H         -50.196224     -126.992874      -40.609261
 C         -46.617050     -127.165009      -40.797153
 C         -45.432716     -127.601181      -40.129803
 C         -46.759941     -125.736610      -41.256687
 C         -44.124683     -127.013351      -40.734081
 C         -45.534565     -125.176414      -41.871956
 C         -44.224907     -125.472214      -41.037994
 H         -45.384926     -128.701080      -40.336578
 H         -45.398174     -127.323845      -39.014446
 H         -47.531471     -125.651505      -42.146263
 H         -47.232838     -125.082237      -40.567001
 H         -44.014439     -127.516319      -41.674507
 H         -43.268417     -127.251350      -40.074608
 H         -45.596161     -124.139839      -42.054642
 H         -45.199501     -125.572792      -42.806614
 H         -43.349648     -125.093529      -41.555363
 H         -44.261932     -124.936234      -40.059105
