20
 generated by VMD
 C         -77.189568     -203.651321      -66.948280
 N         -77.988876     -204.363388      -66.517738
 H         -75.822525     -200.834732      -68.819511
 H         -76.512505     -203.048157      -67.477684
 C         -74.986755     -200.143707      -69.132866
 C         -74.662567     -198.773071      -68.568665
 C         -73.795815     -200.904312      -69.579651
 C         -73.554726     -197.906525      -69.343201
 C         -72.830856     -200.089127      -70.510872
 C         -73.139366     -198.536774      -70.658958
 H         -74.246010     -198.974335      -67.576591
 H         -75.520737     -198.196030      -68.383713
 H         -73.153732     -201.037354      -68.640671
 H         -73.883034     -201.830429      -70.110687
 H         -72.610291     -197.950836      -68.755013
 H         -73.823227     -196.813538      -69.285065
 H         -72.757774     -200.555435      -71.484558
 H         -71.897537     -200.302979      -70.001076
 H         -72.195892     -197.951340      -70.976997
 H         -73.995934     -198.334259      -71.251015
