20
 generated by VMD
 C         -66.053558     -177.845078      -56.897289
 N         -66.906761     -177.116653      -57.152306
 H         -64.136673     -175.597580      -58.370232
 H         -65.283340     -178.528976      -56.626614
 C         -64.395264     -174.860748      -59.205666
 C         -65.567604     -173.922867      -59.195290
 C         -63.430180     -174.476395      -60.312134
 C         -65.236595     -172.520691      -59.043430
 C         -63.142879     -172.998184      -60.423279
 C         -64.344147     -172.021042      -60.193314
 H         -66.328217     -174.284073      -58.464500
 H         -66.114243     -173.975098      -60.129772
 H         -62.592278     -175.238586      -60.204594
 H         -63.863361     -174.884552      -61.232731
 H         -64.567970     -172.273254      -58.193520
 H         -66.096100     -171.850510      -58.847893
 H         -62.630703     -172.944138      -61.401474
 H         -62.396389     -172.673981      -59.680008
 H         -64.081177     -171.023865      -59.901932
 H         -64.955566     -171.855286      -61.118221
