20
 generated by VMD
 C         -40.350346     -118.676125      -35.200310
 N         -39.463375     -117.990044      -35.008320
 H         -43.112839     -116.373505      -36.159187
 H         -40.991459     -119.552017      -35.311222
 C         -43.632294     -116.701347      -37.050499
 C         -42.919044     -117.223793      -38.278297
 C         -45.055229     -116.282219      -37.235943
 C         -43.829956     -118.064209      -39.288956
 C         -45.863743     -117.020790      -38.316280
 C         -45.124123     -117.328262      -39.647808
 H         -42.120968     -117.922401      -37.891354
 H         -42.488991     -116.418381      -38.970680
 H         -45.584789     -116.340668      -36.289013
 H         -44.887096     -115.250481      -37.526512
 H         -44.100140     -119.064758      -38.914127
 H         -43.258652     -118.199585      -40.177681
 H         -46.888775     -116.605057      -38.457752
 H         -46.260059     -117.883057      -37.832245
 H         -45.817795     -118.034317      -40.259705
 H         -45.007427     -116.473694      -40.208309
