20
 generated by VMD
 C          -3.753940      -20.264238        3.307854
 N          -4.240628      -19.320349        2.971224
 H          -5.263574      -19.760592       -0.093535
 H          -6.283463      -21.082376       -0.832925
 C          -6.086573      -20.002665       -0.774593
 C          -5.613130      -19.542486       -2.198017
 C          -7.341069      -19.224340       -0.409173
 C          -6.733531      -19.845743       -3.216342
 C          -8.499739      -19.676447       -1.231559
 C          -8.171716      -19.381207       -2.705360
 H          -4.635242      -20.064703       -2.491971
 H          -5.400051      -18.482225       -2.262030
 H          -7.511556      -19.290220        0.630608
 H          -7.228489      -18.184431       -0.448030
 H          -6.743683      -20.927704       -3.314318
 H          -6.585718      -19.418070       -4.222774
 H          -9.381663      -19.047129       -0.915686
 H          -8.791508      -20.728998       -1.022321
 H          -8.936147      -19.921022       -3.280716
 H          -8.270494      -18.316099       -3.024544
