20
 generated by VMD
 C         -38.487297     -108.031853      -37.361973
 N         -38.934410     -107.201630      -38.017113
 H         -40.462967     -108.532417      -35.281784
 H         -38.277916     -108.719711      -36.579113
 C         -40.692875     -109.299759      -34.469650
 C         -39.684460     -110.389153      -34.494705
 C         -42.030075     -109.432594      -34.063614
 C         -39.780590     -111.263771      -33.170479
 C         -42.191650     -110.256439      -32.769199
 C         -41.284721     -111.573181      -32.820133
 H         -38.658470     -109.891754      -34.619602
 H         -39.773003     -111.039246      -35.401966
 H         -42.259876     -108.426971      -33.765705
 H         -42.752968     -109.811096      -34.856888
 H         -39.368298     -110.698059      -32.387741
 H         -39.235809     -112.170151      -33.241673
 H         -43.364918     -110.329117      -32.683445
 H         -41.772884     -109.680092      -31.911835
 H         -41.339142     -112.160141      -31.843084
 H         -41.647785     -112.272575      -33.616459
