20
 generated by VMD
 C         -40.719341     -100.192505      -30.090836
 N         -40.807339     -100.342705      -28.960295
 H         -37.343876      -99.951294      -30.268305
 H         -40.739040      -99.902382      -31.143560
 C         -36.406025      -99.956123      -30.877575
 C         -36.075432      -99.726410      -32.303719
 C         -35.371841      -99.770889      -29.773155
 C         -35.055130      -98.606941      -32.423935
 C         -34.307457      -98.594604      -30.024872
 C         -33.752563      -98.649994      -31.460096
 H         -37.013176      -99.482346      -32.863148
 H         -35.691391     -100.644402      -32.730480
 H         -35.854057      -99.685593      -28.752581
 H         -34.821880     -100.724136      -29.792561
 H         -35.615318      -97.652008      -32.240364
 H         -34.592617      -98.425705      -33.405861
 H         -33.475914      -98.629852      -29.317440
 H         -34.913155      -97.617294      -30.030209
 H         -33.139217      -97.702332      -31.474247
 H         -33.215992      -99.548897      -31.576038
