20
 generated by VMD
 C         -59.942623     -153.212616      -51.449120
 N         -60.380093     -152.140366      -51.533543
 H         -57.225166     -153.567047      -49.747211
 H         -59.560520     -154.187180      -51.283321
 C         -56.328625     -152.983307      -49.941223
 C         -55.008598     -153.269485      -49.383762
 C         -56.633148     -151.659546      -50.521362
 C         -53.995770     -152.628342      -50.437531
 C         -55.642021     -151.075012      -51.486183
 C         -54.262604     -151.170166      -50.801220
 H         -54.763100     -154.418396      -49.325871
 H         -54.849220     -152.962250      -48.310284
 H         -57.517479     -151.853378      -51.163841
 H         -56.788578     -150.888901      -49.768517
 H         -53.846684     -153.280838      -51.304184
 H         -52.977421     -152.592773      -50.049793
 H         -55.836559     -150.056564      -51.752571
 H         -55.417255     -151.680038      -52.425083
 H         -53.437023     -150.770157      -51.426903
 H         -54.243763     -150.481720      -49.881836
