20
 generated by VMD
 C         -60.245483     -156.126526      -56.024868
 N         -60.647495     -155.103516      -55.635612
 H         -59.719971     -157.942673      -52.637329
 H         -59.926479     -156.942719      -56.607891
 C         -58.886375     -157.730270      -52.037731
 C         -58.287952     -156.456863      -52.201115
 C         -58.127464     -158.919586      -51.620296
 C         -57.264820     -156.176315      -51.148033
 C         -56.998035     -158.698624      -50.615814
 C         -56.270481     -157.372849      -51.010025
 H         -58.992313     -155.675140      -52.365955
 H         -57.662498     -156.389633      -53.056496
 H         -58.879856     -159.606247      -51.117275
 H         -57.737797     -159.455521      -52.522259
 H         -57.893669     -155.947632      -50.231743
 H         -56.639450     -155.320099      -51.214043
 H         -56.132305     -159.410706      -50.574173
 H         -57.408546     -158.712479      -49.485790
 H         -55.460846     -157.106613      -50.185116
 H         -55.608521     -157.515686      -51.826851
