20
 generated by VMD
 C         -10.490964      -37.636105       -7.892512
 N         -11.081290      -36.778011       -7.519141
 H         -12.665708      -39.592453       -8.183293
 H         -13.836064      -39.298496       -7.076554
 C         -13.687360      -39.829166       -7.960431
 C         -13.841447      -41.334248       -7.751901
 C         -14.632992      -39.334469       -9.042693
 C         -15.233784      -41.803894       -7.739015
 C         -16.027760      -39.727707       -8.827144
 C         -16.143787      -41.250473       -8.816618
 H         -13.383673      -41.603218       -6.817011
 H         -13.226158      -41.795216       -8.510762
 H         -14.549082      -38.237762       -9.069942
 H         -14.310103      -39.708046      -10.049846
 H         -15.748736      -41.604862       -6.815928
 H         -15.159249      -42.915112       -7.813829
 H         -16.659616      -39.325497       -9.558101
 H         -16.407246      -39.429447       -7.796713
 H         -17.178358      -41.532768       -8.656559
 H         -15.861296      -41.542080       -9.825956
