20
 generated by VMD
 C         -59.392513     -168.654755      -55.826050
 N         -59.105354     -168.763321      -54.668293
 H         -62.576134     -169.810165      -55.945671
 H         -59.710640     -168.676712      -56.863457
 C         -62.906532     -168.894943      -56.380798
 C         -62.695408     -168.588989      -57.902924
 C         -63.041069     -167.602554      -55.551601
 C         -63.815041     -167.560013      -58.396294
 C         -64.054771     -166.619781      -56.180099
 C         -63.846737     -166.327530      -57.619267
 H         -62.757931     -169.460464      -58.386398
 H         -61.561245     -168.260086      -57.957844
 H         -63.510651     -167.893326      -54.626347
 H         -62.173103     -167.023376      -55.294724
 H         -64.781944     -168.102509      -58.512718
 H         -63.637218     -167.368225      -59.478901
 H         -63.883167     -165.664307      -55.514137
 H         -65.182220     -166.823822      -56.004677
 H         -64.600616     -165.712021      -58.031857
 H         -62.980858     -165.722076      -57.741280
