20
 generated by VMD
 C         -57.827106     -165.564301      -56.383682
 N         -57.237846     -164.846115      -57.128014
 H         -60.260532     -164.609558      -54.255917
 H         -58.444599     -166.179520      -55.752476
 C         -61.172012     -164.906952      -54.659523
 C         -61.923599     -166.190506      -54.295918
 C         -61.821106     -163.914017      -55.676708
 C         -63.411972     -166.167938      -54.623650
 C         -63.404259     -164.009521      -55.738766
 C         -63.702389     -165.462021      -55.959270
 H         -61.947102     -166.289978      -53.188324
 H         -61.499073     -167.057312      -54.883743
 H         -61.596455     -162.793243      -55.298050
 H         -61.336693     -164.013214      -56.696205
 H         -64.167946     -165.670074      -53.882530
 H         -63.820671     -167.259918      -54.713924
 H         -63.544712     -163.487503      -56.734653
 H         -63.761559     -163.682297      -54.811741
 H         -64.752792     -165.696533      -56.252842
 H         -63.180328     -165.963608      -56.834309
