20
 generated by VMD
 C         -75.413506     -201.890427      -66.185425
 N         -76.195190     -202.547928      -65.674751
 H         -75.987373     -199.910080      -68.951691
 H         -74.873825     -201.289749      -66.881897
 C         -75.025955     -199.384354      -69.096313
 C         -74.890320     -198.189728      -68.289719
 C         -74.046379     -199.777328      -70.179085
 C         -73.447823     -197.780197      -68.227455
 C         -73.114899     -198.676529      -70.716057
 C         -72.752602     -197.748260      -69.629181
 H         -75.247734     -198.390930      -67.258171
 H         -75.409065     -197.425461      -68.767220
 H         -73.478653     -200.560623      -69.659500
 H         -74.372963     -200.304504      -71.011490
 H         -72.861435     -198.443939      -67.610062
 H         -73.372620     -196.750290      -67.935402
 H         -73.586617     -198.162949      -71.571960
 H         -72.192558     -199.177094      -71.167076
 H         -71.579414     -197.994492      -69.395569
 H         -72.782982     -196.796371      -70.039780
