20
 generated by VMD
 C         -23.639742      -55.012928      -14.990514
 N         -22.821299      -54.632565      -15.781561
 H         -20.249285      -54.674580      -15.334683
 H         -24.060719      -55.160885      -14.116151
 C         -19.373129      -55.211723      -14.878704
 C         -19.062862      -54.839100      -13.541463
 C         -18.949818      -56.537594      -15.470933
 C         -18.894627      -55.887329      -12.438972
 C         -19.289854      -57.611160      -14.426612
 C         -18.589848      -57.276386      -12.981187
 H         -19.740053      -54.040169      -13.160755
 H         -18.127409      -54.222057      -13.608912
 H         -19.437096      -56.764751      -16.416437
 H         -17.877975      -56.415962      -15.796813
 H         -19.757957      -55.864861      -11.788787
 H         -17.966299      -55.539978      -11.909097
 H         -18.959352      -58.553196      -14.774954
 H         -20.394135      -57.645275      -14.256071
 H         -18.848316      -58.044437      -12.212607
 H         -17.474989      -57.227654      -13.205256
