20
 generated by VMD
 C         -29.163202      -80.504227      -27.045658
 N         -30.027689      -80.208801      -27.737394
 H         -28.310656      -82.692871      -24.352274
 H         -28.184736      -80.871864      -26.642496
 C         -29.178627      -83.144562      -23.961346
 C         -29.438515      -83.144737      -22.552525
 C         -29.944143      -83.967598      -24.846806
 C         -30.968388      -83.252678      -22.217245
 C         -31.512808      -84.092216      -24.624720
 C         -31.681496      -84.339066      -23.044550
 H         -28.960274      -82.163818      -22.100941
 H         -28.915525      -83.965248      -22.056292
 H         -29.731544      -83.417915      -25.787174
 H         -29.570860      -84.943802      -24.919411
 H         -31.345718      -82.291367      -22.274954
 H         -31.109419      -83.528519      -21.086241
 H         -31.970324      -85.009712      -25.178051
 H         -32.115170      -83.189903      -24.830433
 H         -32.797798      -84.343056      -22.860132
 H         -31.274633      -85.284767      -22.778181
