20
 generated by VMD
 C         -29.178753      -81.156403      -27.383064
 N         -29.942038      -80.313881      -27.643787
 H         -28.365097      -82.603241      -24.006613
 H         -28.370562      -81.965797      -27.455389
 C         -29.290462      -83.088326      -23.844168
 C         -29.632120      -83.440811      -22.423866
 C         -29.947672      -83.830284      -24.919785
 C         -31.078075      -83.733376      -22.163124
 C         -31.465305      -84.021248      -24.740622
 C         -31.920897      -84.463959      -23.384405
 H         -29.375809      -82.609024      -21.823908
 H         -28.987398      -84.281853      -22.126461
 H         -29.772570      -83.219078      -25.803238
 H         -29.438782      -84.834297      -25.138319
 H         -31.607121      -82.702644      -21.976343
 H         -31.230324      -84.335365      -21.354023
 H         -31.698442      -84.745522      -25.474178
 H         -31.885241      -83.038620      -25.062632
 H         -33.024517      -84.395897      -23.303085
 H         -31.583488      -85.519806      -23.213058
