20
 generated by VMD
 C         -47.382698     -137.318619      -46.124313
 N         -47.152897     -136.710968      -47.138954
 H         -50.417759     -136.383820      -44.600677
 H         -47.583530     -137.992630      -45.247097
 C         -51.190376     -137.106201      -44.760052
 C         -51.413284     -137.987488      -46.053383
 C         -52.336731     -136.976929      -43.846661
 C         -52.107319     -139.246841      -45.717789
 C         -53.099472     -138.197556      -43.546196
 C         -53.293015     -139.032364      -44.830395
 H         -50.446186     -138.065811      -46.692162
 H         -52.060268     -137.433762      -46.687378
 H         -51.868790     -136.677429      -42.916916
 H         -52.950169     -136.208344      -44.260822
 H         -51.357773     -139.921326      -45.186539
 H         -52.498825     -139.717987      -46.687508
 H         -54.172249     -137.837204      -43.128841
 H         -52.508816     -138.892075      -42.935673
 H         -53.664341     -140.162659      -44.609524
 H         -54.068600     -138.551483      -45.547546
