20
 generated by VMD
 C         -60.680870     -153.468185      -51.756657
 N         -61.442043     -154.395630      -51.861267
 H         -57.618618     -153.994385      -52.062595
 H         -59.995708     -152.593719      -51.691883
 C         -56.827698     -153.516876      -51.495583
 C         -56.598953     -153.742935      -50.075424
 C         -55.964203     -152.410156      -52.031281
 C         -55.156059     -153.942078      -49.761436
 C         -54.420185     -152.387756      -51.628124
 C         -54.280327     -152.699890      -50.160084
 H         -57.100487     -154.740494      -49.802944
 H         -57.176884     -152.937988      -49.552910
 H         -56.051582     -152.375427      -53.164677
 H         -56.435257     -151.464844      -51.746716
 H         -54.774124     -154.838608      -50.331753
 H         -54.952675     -154.351593      -48.717567
 H         -53.984650     -151.379807      -51.846424
 H         -53.946838     -153.199448      -52.379765
 H         -53.238918     -152.842514      -49.874969
 H         -54.531719     -151.716141      -49.561398
