20
 generated by VMD
 C         -79.143860     -205.758865      -73.968513
 N         -79.199913     -206.865814      -73.599892
 H         -78.652962     -206.021988      -70.461327
 H         -79.409309     -204.786301      -74.404938
 C         -77.608932     -206.351120      -70.467209
 C         -76.755302     -205.513229      -71.357857
 C         -77.191345     -207.683594      -69.885704
 C         -75.365936     -205.446548      -70.797264
 C         -75.877556     -207.456421      -69.214943
 C         -74.852722     -206.768906      -70.158585
 H         -77.389244     -204.591171      -71.340607
 H         -76.644218     -205.832352      -72.480949
 H         -77.999382     -207.755875      -69.107285
 H         -77.335266     -208.522507      -70.544693
 H         -75.352150     -204.681274      -69.983582
 H         -74.702988     -204.965179      -71.516830
 H         -75.442116     -208.338928      -68.847000
 H         -76.006104     -206.703659      -68.391197
 H         -73.852486     -206.750992      -69.754959
 H         -74.719681     -207.338654      -71.085892
