20
 generated by VMD
 C         -19.585178      -58.350697      -17.176100
 N         -19.277515      -58.761959      -18.209019
 H         -22.510303      -59.648331      -16.343336
 H         -20.225414      -58.056110      -16.340986
 C         -22.807926      -60.726196      -16.209833
 C         -23.672352      -61.559761      -17.068918
 C         -22.535671      -61.204510      -14.818597
 C         -23.383339      -63.038605      -16.877123
 C         -22.055143      -62.617321      -14.947793
 C         -23.179712      -63.529915      -15.388930
 H         -23.635645      -61.228207      -18.142288
 H         -24.793215      -61.389809      -16.684778
 H         -21.770464      -60.586586      -14.237391
 H         -23.405781      -60.972595      -14.178886
 H         -22.407124      -63.185925      -17.371021
 H         -24.177290      -63.665993      -17.370464
 H         -21.622004      -63.029079      -13.971449
 H         -21.109955      -62.795879      -15.502381
 H         -22.780563      -64.553406      -15.522429
 H         -23.984695      -63.525642      -14.718886
