20
 generated by VMD
 C         -39.121181      -98.905357      -27.899717
 N         -38.566837      -99.913490      -27.641380
 H         -37.522099      -98.245911      -30.692717
 H         -39.499397      -97.995255      -28.354235
 C         -36.385666      -98.043571      -30.693354
 C         -35.684334      -98.239365      -32.045231
 C         -35.764534      -97.359650      -29.561127
 C         -34.404236      -97.476494      -32.306053
 C         -34.368389      -96.583664      -29.968821
 C         -33.533447      -97.148354      -31.078989
 H         -36.405182      -97.810051      -32.719929
 H         -35.556145      -99.265625      -32.478992
 H         -36.402809      -96.607231      -29.111437
 H         -35.625893      -98.216217      -28.809523
 H         -34.664219      -96.613014      -33.018326
 H         -33.737045      -98.047981      -32.909389
 H         -33.710823      -96.536209      -29.048080
 H         -34.641174      -95.494759      -30.272417
 H         -32.664227      -96.431953      -31.467178
 H         -33.049927      -97.973305      -30.642937
