20
 generated by VMD
 C          -1.521012      -10.544821        0.915591
 N          -0.777054      -10.985160        1.636581
 H          -3.861319      -12.957768        0.172146
 H          -5.098975      -12.521469        1.308234
 C          -4.516054      -13.354470        0.978606
 C          -3.665372      -13.969820        2.049083
 C          -5.428402      -14.466174        0.400172
 C          -4.561191      -14.496199        3.170152
 C          -6.311581      -15.156369        1.461937
 C          -5.464242      -15.577917        2.659955
 H          -3.023631      -13.155684        2.374301
 H          -2.981642      -14.753765        1.576112
 H          -6.018201      -14.137673       -0.495239
 H          -4.821122      -15.310800       -0.021711
 H          -5.051340      -13.585910        3.564179
 H          -3.892959      -14.774257        3.974907
 H          -6.896497      -15.957468        1.049428
 H          -7.084264      -14.418365        1.731812
 H          -6.212665      -15.837920        3.433254
 H          -4.947959      -16.510267        2.424658
