20
 generated by VMD
 C         -60.814938     -153.273285      -52.370811
 N         -60.842194     -153.153946      -51.204460
 H         -57.645523     -153.880646      -50.629559
 H         -60.831890     -153.493835      -53.439304
 C         -56.672333     -153.407455      -50.686245
 C         -55.629387     -153.650589      -49.584892
 C         -56.567081     -152.092026      -51.322353
 C         -54.090733     -153.178040      -49.830318
 C         -55.070736     -151.711426      -51.641193
 C         -54.058369     -151.871063      -50.497566
 H         -55.674385     -154.721985      -49.338596
 H         -56.000618     -153.114609      -48.628571
 H         -56.969028     -152.238617      -52.351269
 H         -57.156513     -151.336334      -50.844944
 H         -53.656918     -153.880722      -50.516556
 H         -53.709682     -153.148285      -48.760033
 H         -55.057152     -150.628906      -52.075977
 H         -54.604568     -152.315231      -52.575081
 H         -52.942696     -151.713501      -50.906437
 H         -54.344345     -151.211426      -49.674255
