20
 generated by VMD
 C         -49.977345     -131.614395      -46.637920
 N         -50.207493     -131.850143      -47.800415
 H         -48.379940     -131.610962      -43.757778
 H         -49.728653     -131.253983      -45.593567
 C         -48.954067     -132.236923      -43.127190
 C         -49.698254     -133.507385      -43.376446
 C         -48.745644     -131.833557      -41.764988
 C         -48.960705     -134.628494      -42.554935
 C         -48.013226     -132.963364      -41.000423
 C         -48.813553     -134.258804      -41.042137
 H         -49.580025     -133.726608      -44.411530
 H         -50.772903     -133.653854      -43.140427
 H         -48.194527     -130.866440      -41.688320
 H         -49.685017     -131.647217      -41.205612
 H         -47.978504     -134.953079      -42.859264
 H         -49.491417     -135.578201      -42.492168
 H         -47.847652     -132.660217      -40.016911
 H         -47.026180     -132.942871      -41.361671
 H         -48.124928     -135.051071      -40.556522
 H         -49.788956     -134.137497      -40.625469
