20
 generated by VMD
 C         -79.513229     -206.234634      -74.905571
 N         -79.525299     -206.481995      -73.811378
 H         -78.680740     -206.631851      -71.035286
 H         -79.220505     -205.850815      -75.916916
 C         -77.664391     -206.665909      -70.668274
 C         -76.604340     -205.770752      -71.259834
 C         -77.307320     -207.806595      -69.866699
 C         -75.354416     -205.707642      -70.430550
 C         -75.903488     -207.754089      -69.129898
 C         -74.870621     -207.130539      -70.120987
 H         -77.214378     -204.866028      -71.236824
 H         -76.281303     -205.908417      -72.252983
 H         -78.009895     -207.806839      -69.049599
 H         -77.343483     -208.780502      -70.352371
 H         -75.528152     -205.160751      -69.471382
 H         -74.541229     -205.039246      -70.845940
 H         -75.666687     -208.814651      -68.681396
 H         -76.013901     -207.147720      -68.251358
 H         -73.945778     -207.305283      -69.645813
 H         -74.705917     -207.719666      -71.093979
