20
 generated by VMD
 C          -3.491248      -17.370058        2.200862
 N          -3.185579      -18.438984        2.067371
 H          -5.560529      -20.416672        0.655769
 H          -5.941617      -21.044489       -0.938866
 C          -6.046212      -20.151119       -0.283716
 C          -5.428769      -18.850775       -0.859324
 C          -7.618256      -19.932648        0.003111
 C          -6.216203      -18.237768       -2.069633
 C          -8.278691      -19.357651       -1.260338
 C          -7.709439      -18.047476       -1.771875
 H          -4.452141      -19.067318       -1.287999
 H          -5.336895      -18.059256       -0.127277
 H          -8.034772      -20.994978        0.275419
 H          -7.751587      -19.181772        0.828292
 H          -6.077593      -18.973768       -2.973066
 H          -5.750252      -17.257954       -2.280620
 H          -9.360037      -19.209305       -1.091584
 H          -8.173126      -20.093130       -2.099897
 H          -8.238262      -17.834818       -2.719717
 H          -7.999007      -17.222698       -1.128042
