20
 generated by VMD
 C         -72.536377     -198.796066      -65.531837
 N         -73.533844     -199.277512      -65.867424
 H         -71.065178     -196.262970      -67.449318
 H         -71.580269     -198.259827      -65.576988
 C         -72.068336     -196.057831      -67.782707
 C         -72.940712     -195.120544      -67.069710
 C         -72.465836     -196.678421      -69.092331
 C         -74.252281     -194.997299      -67.715424
 C         -73.890022     -197.155640      -68.952118
 C         -74.798897     -196.425644      -67.969994
 H         -72.490013     -194.138779      -67.268379
 H         -72.910728     -195.283310      -65.985931
 H         -72.476173     -195.895920      -69.852875
 H         -71.850410     -197.578369      -69.310799
 H         -74.358749     -194.381638      -68.659760
 H         -74.931152     -194.464523      -67.052956
 H         -73.824211     -198.141632      -68.511253
 H         -74.287712     -197.439545      -69.966347
 H         -75.903519     -196.389160      -68.225014
 H         -74.831085     -196.887680      -67.027542
