20
 generated by VMD
 C         -60.365120     -170.103836      -55.089355
 N         -59.284206     -170.032532      -55.423683
 H         -63.551464     -170.797470      -56.826645
 H         -61.351166     -170.081207      -54.705475
 C         -63.476830     -169.695175      -57.012268
 C         -62.446770     -169.038940      -57.918407
 C         -64.218025     -168.759949      -56.157730
 C         -63.063267     -167.890366      -58.741299
 C         -64.841515     -167.621017      -57.018909
 C         -63.807110     -166.838699      -57.826797
 H         -61.858543     -169.617722      -58.547806
 H         -61.699219     -168.552155      -57.167721
 H         -64.904762     -169.256958      -55.619694
 H         -63.410629     -168.487442      -55.516258
 H         -63.944126     -168.265915      -59.423191
 H         -62.330952     -167.381989      -59.408047
 H         -65.256462     -166.879898      -56.342361
 H         -65.519638     -167.940765      -57.686897
 H         -64.214066     -166.024796      -58.500080
 H         -63.199791     -166.280914      -57.114231
