20
 generated by VMD
 C         -20.007055      -52.011063       -9.995257
 N         -20.967827      -51.290646       -9.884693
 H         -17.926916      -49.052486      -10.450557
 H         -19.249950      -52.475510      -10.438165
 C         -17.438450      -49.174355      -11.397276
 C         -16.681087      -50.440403      -11.631428
 C         -17.176794      -47.956139      -12.265443
 C         -16.644499      -50.729588      -13.129354
 C         -17.297354      -48.235283      -13.732609
 C         -16.369497      -49.457859      -14.003852
 H         -17.103579      -51.219727      -11.037130
 H         -15.632981      -50.304012      -11.304306
 H         -17.817719      -47.089909      -11.979383
 H         -16.137583      -47.690308      -11.984844
 H         -17.559490      -51.214401      -13.433805
 H         -15.830953      -51.415485      -13.356384
 H         -16.837372      -47.360336      -14.306134
 H         -18.286467      -48.463127      -14.045020
 H         -16.559425      -49.825893      -15.007145
 H         -15.322885      -49.170780      -13.978861
