20
 generated by VMD
 C         -18.109386      -48.557739       -7.365430
 N         -18.567389      -49.007835       -6.446319
 H         -16.260189      -48.071480      -10.116210
 H         -16.056803      -49.129250      -11.676700
 C         -16.290171      -48.099556      -11.239689
 C         -15.337807      -47.049675      -11.818859
 C         -17.656012      -47.686108      -11.698077
 C         -15.314857      -47.064175      -13.327065
 C         -17.789995      -47.383087      -13.199781
 C         -16.637260      -46.532410      -13.828935
 H         -14.391169      -47.347164      -11.428140
 H         -15.552929      -46.013142      -11.547203
 H         -18.357752      -48.444370      -11.359607
 H         -17.967834      -46.839897      -11.129120
 H         -15.115681      -48.055328      -13.751151
 H         -14.425926      -46.486259      -13.651430
 H         -18.726202      -46.854252      -13.353505
 H         -17.801291      -48.378216      -13.640800
 H         -16.717855      -46.575485      -14.960999
 H         -16.765463      -45.442627      -13.532393
