20
 generated by VMD
 C         -32.198986      -93.940834      -25.312101
 N         -33.189423      -94.567223      -25.482191
 H         -33.864918      -95.198296      -28.485855
 H         -31.456656      -93.206795      -25.220741
 C         -34.251160      -94.225136      -28.922447
 C         -35.594604      -93.597679      -28.689537
 C         -33.545235      -93.459892      -30.093155
 C         -35.554665      -92.066742      -28.486139
 C         -33.640972      -91.965927      -30.019732
 C         -34.950592      -91.342690      -29.658377
 H         -35.989323      -94.042854      -27.687649
 H         -36.375473      -93.815071      -29.487001
 H         -32.520714      -93.871246      -30.244776
 H         -34.194271      -93.729660      -30.919031
 H         -34.934547      -91.779465      -27.632484
 H         -36.694775      -91.834648      -28.370886
 H         -33.311375      -91.492569      -30.948503
 H         -32.857285      -91.659248      -29.298918
 H         -35.026421      -90.229881      -29.429523
 H         -35.575382      -91.598854      -30.495974
