20
 generated by VMD
 C         -78.043655     -203.367432      -69.510178
 N         -78.723465     -204.304184      -69.308807
 H         -75.849869     -202.200012      -68.077019
 H         -77.421646     -202.638382      -69.931976
 C         -74.982201     -201.675690      -68.339317
 C         -74.864334     -200.231506      -68.582672
 C         -73.795013     -202.519943      -68.737007
 C         -74.808098     -200.029861      -70.100121
 C         -72.932617     -201.744095      -69.862686
 C         -73.871933     -200.990021      -70.786987
 H         -73.987511     -199.807205      -67.986313
 H         -75.759865     -199.827972      -68.204025
 H         -73.150734     -202.621246      -67.828293
 H         -74.207466     -203.581940      -69.094887
 H         -74.649704     -198.974792      -70.326996
 H         -75.876541     -200.179657      -70.408058
 H         -72.243126     -202.321304      -70.438416
 H         -72.362419     -201.050888      -69.282181
 H         -73.384338     -200.397476      -71.650505
 H         -74.508072     -201.686005      -71.265915
