20
 generated by VMD
 C         -14.175324      -28.149683       -3.275861
 N         -14.052114      -27.203146       -3.874125
 H         -10.357087      -28.403248       -2.798680
 H          -9.914077      -27.187424       -3.877559
 C          -9.491334      -28.084452       -3.377516
 C          -8.954185      -29.218145       -4.221203
 C          -8.342248      -27.519413       -2.513564
 C          -7.758156      -28.661158       -5.072437
 C          -7.270984      -26.948292       -3.349391
 C          -6.654292      -28.040924       -4.253773
 H          -9.734177      -29.635645       -4.889184
 H          -8.401594      -29.972111       -3.603863
 H          -8.676055      -26.716450       -1.820844
 H          -7.983482      -28.341080       -1.900401
 H          -8.284930      -27.910967       -5.623849
 H          -7.337354      -29.459816       -5.709964
 H          -6.483572      -26.547409       -2.725236
 H          -7.691937      -26.144815       -4.039169
 H          -5.819356      -27.630777       -4.883590
 H          -6.185280      -28.850214       -3.675306
