20
 generated by VMD
 C         -67.766846     -185.823990      -67.178452
 N         -68.745781     -185.912369      -67.759735
 H         -68.631363     -188.239136      -64.590897
 H         -66.821648     -185.755707      -66.626938
 C         -69.229027     -187.854904      -63.807755
 C         -68.954575     -186.617661      -63.013577
 C         -70.637474     -188.311035      -63.778179
 C         -69.414421     -186.828842      -61.560898
 C         -71.367577     -188.297043      -62.452068
 C         -70.995789     -187.141129      -61.528576
 H         -69.557915     -185.811020      -63.467335
 H         -67.842163     -186.369751      -63.042065
 H         -71.134369     -187.647461      -64.548409
 H         -70.740166     -189.241745      -64.261887
 H         -69.089676     -185.885803      -61.044495
 H         -68.953346     -187.669144      -61.066265
 H         -71.160492     -189.269608      -61.818909
 H         -72.511925     -188.430496      -62.664539
 H         -71.702667     -186.384872      -61.709278
 H         -71.268532     -187.292145      -60.453896
