20
 generated by VMD
 C         -41.524956     -119.652008      -34.298344
 N         -41.583759     -120.402946      -35.165039
 H         -43.249931     -118.581459      -36.772102
 H         -41.652744     -119.137856      -33.397419
 C         -43.768524     -118.402832      -37.745586
 C         -43.046139     -118.318428      -38.955643
 C         -45.129826     -117.783714      -37.799545
 C         -43.853676     -118.708328      -40.288742
 C         -45.951172     -118.129196      -39.115601
 C         -45.189335     -117.886047      -40.405083
 H         -42.165936     -119.009590      -38.921013
 H         -42.541618     -117.304115      -38.988968
 H         -45.846642     -118.099915      -36.976955
 H         -44.954735     -116.754929      -37.695225
 H         -44.006714     -119.757225      -40.311188
 H         -43.262718     -118.320847      -41.172371
 H         -46.743801     -117.458420      -39.118492
 H         -46.322895     -119.121651      -38.896099
 H         -45.926788     -118.308464      -41.163506
 H         -45.081577     -116.817772      -40.403893
