20
 generated by VMD
 C         -38.013668     -109.701996      -36.423092
 N         -37.420040     -108.871727      -35.880062
 H         -40.651554     -112.284149      -36.950413
 H         -38.322639     -110.452339      -37.106693
 C         -41.369511     -112.474785      -36.173859
 C         -42.383091     -113.498932      -36.422112
 C         -41.694901     -111.352211      -35.347790
 C         -42.904049     -114.094368      -35.131699
 C         -42.314262     -111.933685      -34.008984
 C         -43.420555     -112.918320      -34.201599
 H         -41.914192     -114.270477      -36.986496
 H         -43.059380     -113.080116      -37.179153
 H         -40.799610     -110.858040      -35.020805
 H         -42.362408     -110.606148      -35.599644
 H         -42.131721     -114.784935      -34.615826
 H         -43.756359     -114.619637      -35.402184
 H         -42.656071     -111.147224      -33.283535
 H         -41.397114     -112.499100      -33.580296
 H         -43.658169     -113.406456      -33.220963
 H         -44.250629     -112.428741      -34.580303
