20
 generated by VMD
 C         -73.891472     -200.556274      -65.585869
 N         -73.000252     -201.115448      -65.120941
 H         -73.548737     -198.045166      -66.446449
 H         -74.704147     -199.843307      -65.887489
 C         -73.669380     -197.506287      -67.362587
 C         -74.030937     -196.008148      -67.245972
 C         -72.942230     -197.825272      -68.700554
 C         -73.714607     -195.210541      -68.552933
 C         -73.810066     -197.328384      -69.943840
 C         -74.054619     -195.841324      -69.914238
 H         -73.645935     -195.515137      -66.289574
 H         -75.062859     -196.114944      -67.029945
 H         -71.909561     -197.438843      -68.671936
 H         -72.781822     -198.884872      -68.823761
 H         -72.604599     -195.057068      -68.547501
 H         -74.250397     -194.227142      -68.557899
 H         -74.755615     -197.902237      -70.036339
 H         -73.281601     -197.587509      -70.800858
 H         -73.509262     -195.409714      -70.820251
 H         -75.129875     -195.831238      -70.207672
