20
 generated by VMD
 C         -24.873693      -70.763733      -16.712730
 N         -25.181316      -70.859695      -15.580254
 H         -23.865627      -68.277573      -18.881041
 H         -24.800972      -70.618301      -17.720234
 C         -24.518520      -68.800354      -19.547970
 C         -23.858526      -69.473686      -20.714205
 C         -25.866428      -68.258675      -19.654892
 C         -24.805830      -70.398788      -21.348074
 C         -26.751934      -69.106606      -20.447296
 C         -26.163599      -69.713669      -21.658024
 H         -22.926609      -69.922371      -20.360048
 H         -23.488464      -68.555962      -21.404865
 H         -26.278194      -67.952065      -18.691898
 H         -25.832211      -67.379082      -20.319294
 H         -24.969660      -71.265633      -20.605989
 H         -24.399744      -70.763947      -22.272644
 H         -27.685314      -68.614220      -20.781841
 H         -27.128817      -69.855202      -19.679970
 H         -26.708954      -70.518349      -22.117704
 H         -26.093628      -69.052887      -22.510448
