20
 generated by VMD
 C         -38.589664     -108.024025      -37.376923
 N         -38.944546     -107.136459      -38.007957
 H         -40.300301     -108.293747      -34.974659
 H         -38.229271     -108.742348      -36.677864
 C         -40.588776     -109.308922      -34.612297
 C         -39.609024     -110.420135      -34.377510
 C         -42.070812     -109.361740      -34.014633
 C         -39.802814     -111.229500      -33.149651
 C         -42.108154     -110.247162      -32.787125
 C         -41.300945     -111.532127      -32.832336
 H         -38.555397     -109.984833      -34.258049
 H         -39.677048     -111.061035      -35.307236
 H         -42.517220     -108.385826      -33.854111
 H         -42.737480     -109.747398      -34.848709
 H         -39.422611     -110.645973      -32.328678
 H         -39.184513     -112.048088      -33.158360
 H         -43.154373     -110.619972      -32.408970
 H         -41.766033     -109.586693      -31.935835
 H         -41.386089     -112.034279      -31.858503
 H         -41.767624     -112.186447      -33.651619
