20
 generated by VMD
 C         -59.453804     -158.233475      -57.286331
 N         -58.466274     -158.529709      -57.736115
 H         -60.320892     -158.198853      -53.465900
 H         -60.437851     -157.938187      -56.934391
 C         -60.021584     -159.075363      -52.892681
 C         -58.562160     -159.125565      -52.495499
 C         -60.671070     -160.428802      -53.113323
 C         -58.364323     -160.216339      -51.333557
 C         -60.443977     -161.616989      -52.168854
 C         -58.941284     -161.609451      -51.706070
 H         -58.036930     -158.205597      -52.262920
 H         -57.994247     -159.379669      -53.437820
 H         -61.835815     -160.434372      -53.288631
 H         -60.195183     -160.692734      -54.078770
 H         -58.962612     -159.849304      -50.557030
 H         -57.233364     -160.407639      -51.094246
 H         -60.574020     -162.610992      -52.662022
 H         -61.210949     -161.633118      -51.288837
 H         -59.004036     -162.164597      -50.817486
 H         -58.362164     -161.994568      -52.570324
