20
 generated by VMD
 C         -68.796059     -180.285675      -62.411465
 N         -69.825111     -180.720718      -62.182339
 H         -67.112839     -180.662720      -59.379742
 H         -67.757057     -179.931595      -62.551571
 C         -66.469879     -179.844299      -59.768169
 C         -65.394440     -180.131134      -60.805378
 C         -66.311035     -178.592072      -58.974644
 C         -65.161362     -178.916519      -61.687691
 C         -66.328377     -177.401611      -59.965408
 C         -65.131310     -177.486359      -61.029942
 H         -65.874176     -180.833649      -61.470848
 H         -64.524925     -180.665939      -60.452293
 H         -67.101944     -178.341217      -58.322216
 H         -65.361221     -178.761368      -58.388363
 H         -66.003113     -178.862122      -62.350895
 H         -64.274422     -178.970291      -62.327015
 H         -66.163109     -176.463547      -59.387512
 H         -67.324593     -177.323776      -60.418274
 H         -65.377274     -176.640732      -61.681240
 H         -64.252060     -177.446548      -60.429852
