20
 generated by VMD
 C         -13.841529      -28.742224       -7.046255
 N         -13.246055      -28.890837       -7.980099
 H         -11.879831      -30.738611       -4.771375
 H         -10.526853      -29.822107       -4.279224
 C         -10.839244      -30.822968       -4.453432
 C         -10.020627      -31.490475       -5.597629
 C         -10.931568      -31.623291       -3.210674
 C          -8.650695      -31.920187       -5.025733
 C          -9.611667      -32.130554       -2.706329
 C          -8.774196      -32.850750       -3.769185
 H          -9.835803      -30.881235       -6.433306
 H         -10.574747      -32.425648       -5.961899
 H         -11.374699      -30.971481       -2.429973
 H         -11.637185      -32.452038       -3.283758
 H          -8.025893      -31.087118       -4.728493
 H          -8.143854      -32.446270       -5.804705
 H          -9.857318      -32.815350       -1.828500
 H          -9.136220      -31.286165       -2.258693
 H          -7.761920      -32.993824       -3.404117
 H          -9.149855      -33.810162       -3.995390
