20
 generated by VMD
 C         -22.419769      -67.891861      -16.304707
 N         -21.381277      -67.791313      -15.788612
 H         -24.234386      -65.289825      -18.451351
 H         -23.402845      -67.888000      -16.834991
 C         -24.506639      -66.361351      -18.739285
 C         -23.971832      -66.959702      -20.052710
 C         -26.012501      -66.585121      -18.590963
 C         -24.488052      -68.389534      -20.302683
 C         -26.598642      -67.829910      -19.097183
 C         -25.979889      -68.375977      -20.375498
 H         -22.912729      -66.805695      -20.057198
 H         -24.263712      -66.271545      -20.890303
 H         -26.256540      -66.658035      -17.472094
 H         -26.538313      -65.716194      -19.021271
 H         -24.174000      -68.943115      -19.398008
 H         -24.061626      -68.744865      -21.192062
 H         -27.684141      -67.754868      -19.318211
 H         -26.378895      -68.594521      -18.395569
 H         -26.472078      -69.314003      -20.728283
 H         -26.226578      -67.675995      -21.184740
