20
 generated by VMD
 C         -68.540222     -185.438690      -66.711571
 N         -67.793015     -186.261734      -67.056412
 H         -69.638596     -183.856812      -63.969872
 H         -69.115379     -184.697464      -66.248207
 C         -69.582428     -184.559982      -63.213688
 C         -70.801643     -185.084961      -62.529774
 C         -68.298615     -185.370529      -63.182697
 C         -70.423347     -185.561554      -61.153160
 C         -68.015747     -186.180984      -61.753670
 C         -69.381599     -186.628860      -61.057030
 H         -71.179825     -185.884705      -63.138813
 H         -71.407951     -184.223160      -62.493938
 H         -68.160912     -186.247833      -63.877571
 H         -67.506523     -184.679138      -63.392292
 H         -71.362381     -185.952148      -60.771816
 H         -70.139206     -184.791199      -60.518047
 H         -67.447754     -185.560333      -61.049652
 H         -67.383492     -187.024261      -62.010307
 H         -69.681587     -187.492981      -61.738552
 H         -68.995064     -187.004410      -59.994732
