20
 generated by VMD
 C         -77.898003     -210.009903      -76.404633
 N         -77.310455     -210.956406      -76.159378
 H         -80.605339     -212.434570      -74.766365
 H         -78.355652     -209.009552      -76.634338
 C         -80.184608     -213.248962      -74.086914
 C         -78.810448     -213.191422      -73.596466
 C         -81.192406     -213.911957      -73.197464
 C         -78.736031     -212.952271      -72.159927
 C         -81.015930     -213.797607      -71.637924
 C         -79.563507     -213.912903      -71.318932
 H         -78.239098     -212.353897      -74.040733
 H         -78.356888     -214.179581      -73.876328
 H         -82.203896     -213.558411      -73.365990
 H         -81.326218     -215.006149      -73.605057
 H         -79.245499     -211.978500      -71.964828
 H         -77.698196     -212.870697      -71.927269
 H         -81.552422     -214.554276      -71.187187
 H         -81.453728     -212.777115      -71.342186
 H         -79.453148     -213.491913      -70.277069
 H         -79.225769     -214.964691      -71.382240
