20
 generated by VMD
 C         -78.938507     -206.903275      -75.371117
 N         -79.714554     -207.062912      -76.191170
 H         -78.033150     -209.922943      -73.297409
 H         -78.297516     -206.864227      -74.515671
 C         -77.827011     -209.618271      -72.275528
 C         -76.690750     -208.724808      -71.928070
 C         -78.183746     -210.650314      -71.288147
 C         -76.677322     -208.281921      -70.494530
 C         -78.304741     -210.118225      -69.819710
 C         -76.876701     -209.520966      -69.525894
 H         -76.698090     -207.865173      -72.601662
 H         -75.811661     -209.310699      -72.146317
 H         -79.253494     -210.860489      -71.388969
 H         -77.675125     -211.632996      -71.459068
 H         -77.469360     -207.491562      -70.327797
 H         -75.702881     -207.755005      -70.411087
 H         -78.565979     -210.979446      -69.231735
 H         -79.151123     -209.328323      -69.637947
 H         -76.983414     -209.172531      -68.490265
 H         -75.964401     -210.099365      -69.612274
