20
 generated by VMD
 C         -10.845693      -36.663479       -7.968214
 N          -9.915341      -36.908176       -7.435832
 H         -13.005827      -38.809841       -7.964643
 H         -14.331008      -38.949791       -6.983445
 C         -13.922021      -39.365223       -7.861228
 C         -13.658868      -40.841820       -7.666898
 C         -14.953417      -39.067383       -8.976069
 C         -14.965180      -41.722824       -7.581327
 C         -16.299772      -39.843338       -8.649412
 C         -15.936667      -41.310524       -8.723065
 H         -13.176201      -41.015129       -6.726867
 H         -13.081105      -41.180473       -8.520964
 H         -15.162425      -38.011051       -9.061068
 H         -14.511240      -39.455742       -9.944715
 H         -15.397075      -41.609684       -6.582902
 H         -14.701705      -42.802525       -7.751879
 H         -16.975590      -39.587742       -9.407665
 H         -16.701410      -39.485340       -7.641536
 H         -16.814123      -41.898457       -8.644534
 H         -15.466550      -41.551315       -9.684340
