20
 generated by VMD
 C         -49.841949     -128.751190      -42.972240
 N         -50.646488     -128.747864      -43.770813
 H         -48.867397     -128.366867      -40.100533
 H         -49.199364     -128.825806      -42.102985
 C         -47.819218     -128.219116      -40.446346
 C         -46.699600     -129.154099      -39.930233
 C         -47.417992     -126.842064      -41.100422
 C         -45.586868     -129.253510      -41.056862
 C         -46.364014     -127.146156      -42.158958
 C         -45.149334     -127.922630      -41.635582
 H         -47.166588     -130.197708      -39.824520
 H         -46.168156     -128.851700      -39.036667
 H         -48.358788     -126.268311      -41.470924
 H         -47.131939     -126.291000      -40.309113
 H         -46.017315     -129.799881      -41.872799
 H         -44.676380     -129.645508      -40.613060
 H         -46.137630     -126.204567      -42.648891
 H         -46.777084     -127.838127      -42.906174
 H         -44.428177     -128.136002      -42.425964
 H         -44.595257     -127.249641      -40.968563
