20
 generated by VMD
 C         -43.321133     -121.170715      -35.865921
 N         -43.454693     -120.508339      -34.929497
 H         -44.766525     -122.295883      -39.173740
 H         -42.978550     -121.653152      -36.711479
 C         -44.686653     -121.291573      -39.350613
 C         -43.388554     -120.602959      -39.717144
 C         -45.748638     -120.332977      -38.845131
 C         -43.533775     -119.186966      -40.328617
 C         -45.812176     -118.886162      -39.419453
 C         -44.399929     -118.291016      -39.484093
 H         -42.856113     -121.209465      -40.435432
 H         -42.793724     -120.424759      -38.744324
 H         -46.621723     -120.861893      -39.106461
 H         -45.737457     -120.407738      -37.742531
 H         -43.970901     -119.122948      -41.327465
 H         -42.565662     -118.817284      -40.455761
 H         -46.470257     -118.383690      -38.796593
 H         -46.265583     -118.786728      -40.378460
 H         -44.395184     -117.304161      -40.035442
 H         -44.098358     -118.222542      -38.357723
