20
 generated by VMD
 C          -7.226120      -23.448822        1.728840
 N          -7.417653      -22.517639        2.303361
 H          -8.919128      -23.541275       -1.355916
 H          -9.373113      -22.393984       -2.687983
 C          -8.491069      -22.791183       -2.100226
 C          -7.601563      -23.502943       -3.097957
 C          -7.792994      -21.625887       -1.329780
 C          -6.952912      -22.603840       -4.126389
 C          -7.152668      -20.653387       -2.355282
 C          -6.237050      -21.462784       -3.417834
 H          -8.176810      -24.287086       -3.523535
 H          -6.747309      -24.010309       -2.577959
 H          -8.421101      -21.036320       -0.717743
 H          -7.027667      -22.091316       -0.713085
 H          -7.746730      -22.123943       -4.800325
 H          -6.203608      -23.235039       -4.664837
 H          -6.491037      -19.964296       -1.865033
 H          -7.918423      -20.106911       -2.899731
 H          -5.854203      -20.763485       -4.162392
 H          -5.349757      -21.822662       -2.860697
