20
 generated by VMD
 C         -68.819527     -194.966904      -65.525879
 N         -68.683784     -194.651230      -64.399712
 H         -71.234230     -194.107132      -67.929741
 H         -68.908852     -195.033890      -66.653481
 C         -72.035797     -193.802612      -67.254364
 C         -71.753159     -192.509323      -66.525597
 C         -73.416176     -194.327576      -67.369659
 C         -72.862953     -192.134552      -65.590599
 C         -74.534798     -193.442429      -67.009300
 C         -74.183250     -192.131256      -66.286919
 H         -71.520386     -191.662460      -67.252419
 H         -70.866745     -192.523758      -66.031548
 H         -73.425812     -194.777069      -68.404472
 H         -73.561485     -195.286392      -66.915810
 H         -72.573051     -191.233963      -65.157555
 H         -72.918518     -192.867767      -64.760635
 H         -75.235939     -194.055740      -66.389336
 H         -75.144981     -193.184143      -67.838554
 H         -74.103333     -191.286148      -67.162071
 H         -75.006294     -191.831482      -65.695015
