20
 generated by VMD
 C         -38.215752     -109.670784      -36.493011
 N         -37.548820     -108.989937      -35.862076
 H         -40.822746     -111.672157      -37.106499
 H         -38.936699     -110.305740      -36.934963
 C         -41.340061     -111.975296      -36.181381
 C         -42.190941     -113.275421      -36.398087
 C         -41.864273     -110.960083      -35.187546
 C         -42.525677     -113.867722      -35.058689
 C         -42.149143     -111.628021      -33.838024
 C         -43.021358     -112.861023      -33.999226
 H         -41.526859     -113.972641      -36.948956
 H         -43.100891     -113.005760      -37.057312
 H         -41.312859     -110.039062      -34.854614
 H         -42.834442     -110.490555      -35.438660
 H         -41.611053     -114.338448      -34.704498
 H         -43.151737     -114.775063      -35.125690
 H         -42.571762     -110.853302      -33.202026
 H         -41.183323     -111.912880      -33.354534
 H         -43.029224     -113.352455      -33.045994
 H         -44.175262     -112.644905      -34.240665
