20
 generated by VMD
 C         -29.815020      -91.278778      -25.310411
 N         -28.987963      -92.052643      -24.943357
 H         -32.458786      -90.222412      -26.778656
 H         -30.393677      -90.432465      -25.665155
 C         -33.177124      -90.514000      -27.503420
 C         -34.189774      -91.548134      -27.304457
 C         -33.186970      -89.554428      -28.759359
 C         -35.571804      -90.972069      -27.577967
 C         -34.487968      -88.864777      -28.769005
 C         -35.631207      -89.936790      -28.775845
 H         -34.128941      -91.937302      -26.289072
 H         -33.906387      -92.260201      -28.017122
 H         -32.296230      -88.839546      -28.623524
 H         -33.110096      -90.152473      -29.701752
 H         -35.886108      -90.293213      -26.803925
 H         -36.457058      -91.619278      -27.802967
 H         -34.473320      -88.244995      -29.704565
 H         -34.486713      -88.067047      -28.026997
 H         -36.663040      -89.627609      -29.007132
 H         -35.357952      -90.611404      -29.578194
