20
 generated by VMD
 C         -22.320412      -67.538734      -16.091738
 N         -21.190090      -67.273415      -16.141451
 H         -24.113405      -65.138100      -18.384739
 H         -23.284609      -67.727730      -16.363243
 C         -24.453197      -66.195503      -18.585264
 C         -23.807144      -66.737419      -19.951109
 C         -25.900452      -66.489052      -18.368742
 C         -24.472776      -68.109024      -20.373131
 C         -26.514877      -67.809265      -18.810625
 C         -26.018719      -68.072144      -20.210657
 H         -22.649992      -66.813850      -19.770084
 H         -23.840111      -65.844749      -20.601368
 H         -26.134537      -66.223457      -17.365545
 H         -26.554535      -65.710571      -18.872135
 H         -24.132320      -68.924011      -19.745424
 H         -24.146946      -68.382141      -21.424456
 H         -27.596455      -67.917938      -18.735609
 H         -25.991550      -68.568947      -18.100679
 H         -26.334772      -69.038872      -20.574612
 H         -26.275957      -67.182297      -20.840088
