20
 generated by VMD
 C         -11.314090      -33.807491       -9.291796
 N         -11.315838      -34.123722       -8.244234
 H         -11.474126      -37.332283       -8.044507
 H         -11.996973      -36.748108       -6.487000
 C         -12.269831      -37.462925       -7.275059
 C         -12.203336      -38.822044       -6.595332
 C         -13.603290      -37.180996       -7.919962
 C         -13.275520      -38.943794       -5.532222
 C         -14.797990      -37.422695       -6.945843
 C         -14.656732      -38.736561       -6.137245
 H         -11.209970      -38.857895       -6.118970
 H         -12.244243      -39.598633       -7.323506
 H         -13.644575      -36.133739       -8.253824
 H         -13.745432      -37.730320       -8.832943
 H         -13.074252      -38.127018       -4.834079
 H         -13.240065      -39.821873       -4.963813
 H         -15.795568      -37.437103       -7.472356
 H         -14.851903      -36.601986       -6.212268
 H         -15.489636      -38.791389       -5.359091
 H         -14.801796      -39.559872       -6.849919
