20
 generated by VMD
 C         -58.564293     -161.738342      -56.390228
 N         -58.067848     -160.684708      -56.112904
 H         -59.577938     -165.063278      -55.203903
 H         -58.965427     -162.717102      -56.642593
 C         -60.285007     -164.218628      -54.844078
 C         -59.763176     -163.647156      -53.510628
 C         -61.732983     -164.375565      -55.103596
 C         -60.569202     -162.286316      -53.334385
 C         -62.556637     -163.141190      -54.826202
 C         -62.123417     -162.444901      -53.497101
 H         -58.639668     -163.677994      -53.352421
 H         -60.215290     -164.248535      -52.744240
 H         -61.962227     -164.765656      -56.198265
 H         -62.107185     -165.221344      -54.565704
 H         -60.252773     -161.640274      -54.091137
 H         -60.098316     -161.760574      -52.491043
 H         -63.591919     -163.496063      -54.670387
 H         -62.274948     -162.443176      -55.548523
 H         -62.525787     -161.400421      -53.501751
 H         -62.546600     -162.912674      -52.582977
