20
 generated by VMD
 C         -45.009216     -122.664558      -35.443481
 N         -45.334488     -123.736511      -35.025360
 H         -45.166603     -122.850395      -39.273903
 H         -44.534039     -121.764198      -35.667995
 C         -44.916985     -121.863960      -39.506142
 C         -43.531712     -121.441628      -39.563442
 C         -45.923443     -120.671432      -39.472996
 C         -43.279812     -120.439507      -40.807049
 C         -45.826862     -119.903275      -40.801395
 C         -44.322433     -119.439117      -40.963760
 H         -42.800770     -122.220055      -39.410431
 H         -43.290226     -120.714523      -38.658417
 H         -46.916691     -121.004089      -39.341396
 H         -45.647427     -120.155533      -38.612579
 H         -43.148518     -120.995880      -41.802380
 H         -42.234779     -120.064964      -40.743965
 H         -46.546616     -119.064262      -40.668591
 H         -46.287285     -120.520035      -41.647400
 H         -44.368874     -119.192734      -42.000080
 H         -44.187500     -118.576790      -40.396126
