20
 generated by VMD
 C         -59.897770     -157.463760      -56.594799
 N         -59.305000     -158.509293      -56.550114
 H         -60.226524     -157.472961      -53.180328
 H         -60.483971     -156.526672      -56.737347
 C         -59.737068     -158.349503      -52.763584
 C         -58.323925     -158.103729      -52.256454
 C         -60.009895     -159.757843      -53.179714
 C         -57.713089     -159.110977      -51.219288
 C         -59.593323     -160.706696      -52.026028
 C         -58.045959     -160.620941      -51.730862
 H         -58.170681     -157.020905      -51.871708
 H         -57.684711     -157.967102      -53.129940
 H         -61.105629     -159.924957      -53.279518
 H         -59.486492     -160.033539      -54.033337
 H         -58.182850     -159.063217      -50.269062
 H         -56.586121     -158.992035      -51.148819
 H         -59.825531     -161.717819      -52.396091
 H         -60.159435     -160.418701      -51.171207
 H         -57.811565     -161.315704      -51.034737
 H         -57.548580     -160.830658      -52.696793
