20
 generated by VMD
 C         -40.622025     -100.215782      -30.270872
 N         -41.141113     -100.441383      -29.245016
 H         -37.367416     -100.412933      -30.661486
 H         -40.260563     -100.062294      -31.279032
 C         -36.412045     -100.078583      -30.773245
 C         -36.140976      -99.939934      -32.344299
 C         -35.324028     -100.133141      -29.813944
 C         -35.109699      -98.799362      -32.514889
 C         -34.303226      -98.928734      -30.018116
 C         -34.031822      -98.742012      -31.456322
 H         -37.132576      -99.719376      -32.860218
 H         -35.746044     -100.797958      -32.842144
 H         -35.672295     -100.050323      -28.726274
 H         -34.810661     -101.063850      -29.918533
 H         -35.623016      -97.827332      -32.512222
 H         -34.667618      -98.790474      -33.556740
 H         -33.437447      -99.092850      -29.367952
 H         -34.819534      -98.075714      -29.672693
 H         -33.645821      -97.689827      -31.539652
 H         -33.285305      -99.522591      -31.605942
