20
 generated by VMD
 C         -50.185452     -145.208618      -44.884773
 N         -49.671661     -144.404907      -44.221497
 H         -52.787670     -142.657608      -45.783089
 H         -50.849430     -145.948898      -45.366714
 C         -53.284367     -142.615219      -46.745468
 C         -52.580067     -142.774994      -48.005394
 C         -54.610294     -141.919373      -46.748165
 C         -53.344444     -142.891495      -49.300365
 C         -55.421104     -142.283249      -48.053814
 C         -54.543995     -141.965302      -49.360497
 H         -52.074295     -143.729706      -47.941055
 H         -51.992630     -141.950394      -48.280369
 H         -55.120491     -142.326614      -45.897087
 H         -54.580769     -140.931732      -46.546295
 H         -53.698025     -143.856720      -49.462204
 H         -52.621471     -142.709106      -50.044292
 H         -56.240757     -141.600388      -48.106525
 H         -55.797150     -143.280075      -48.048267
 H         -55.149269     -142.146149      -50.225250
 H         -54.189182     -141.002609      -49.205315
