20
 generated by VMD
 C         -68.665253     -189.176376      -67.223740
 N         -67.579391     -189.296921      -66.874527
 H         -68.624901     -187.885376      -63.928165
 H         -69.620132     -188.902557      -67.515625
 C         -69.512856     -188.228012      -63.350338
 C         -69.979362     -189.657974      -63.483612
 C         -70.553108     -187.191620      -62.774502
 C         -71.258980     -189.732590      -64.316483
 C         -71.787048     -187.245499      -63.666771
 C         -72.329994     -188.653671      -63.865292
 H         -70.084732     -190.022583      -62.411419
 H         -69.206772     -190.293167      -63.970413
 H         -70.818077     -187.517960      -61.765736
 H         -70.162567     -186.209732      -62.743519
 H         -71.690727     -190.699371      -64.246613
 H         -71.028824     -189.559647      -65.405731
 H         -71.622292     -186.983917      -64.722260
 H         -72.570038     -186.672913      -63.189442
 H         -72.830872     -188.915619      -62.881355
 H         -72.987663     -188.683243      -64.668808
