20
 generated by VMD
 C         -31.401714      -77.596870      -26.157064
 N         -31.714964      -78.013344      -27.223997
 H         -29.345911      -78.917160      -23.938784
 H         -30.999044      -77.355667      -25.226955
 C         -28.939047      -79.767662      -23.358093
 C         -27.413464      -79.721336      -23.037481
 C         -29.929367      -80.707542      -22.634649
 C         -26.954714      -80.569870      -21.871536
 C         -29.314909      -81.539253      -21.492411
 C         -27.837202      -81.832207      -21.673042
 H         -27.225645      -78.623650      -22.734404
 H         -26.831278      -79.954308      -24.052031
 H         -30.708704      -80.170639      -22.220423
 H         -30.383245      -81.388481      -23.433203
 H         -26.869991      -79.909859      -20.996212
 H         -25.904676      -80.999611      -21.972174
 H         -29.872808      -82.477631      -21.266672
 H         -29.299852      -81.026093      -20.625380
 H         -27.524652      -82.519981      -20.798143
 H         -27.799212      -82.479568      -22.599831
