20
 generated by VMD
 C         -78.862617     -207.983353      -76.338058
 N         -78.445702     -207.786438      -75.285210
 H         -79.440094     -210.258163      -73.290840
 H         -79.453239     -208.294922      -77.194916
 C         -78.778221     -210.171310      -72.441307
 C         -77.502045     -209.391190      -72.403198
 C         -78.897911     -211.245285      -71.492714
 C         -77.086555     -209.085709      -70.939354
 C         -78.598877     -210.864639      -70.120934
 C         -77.248840     -210.229477      -70.010475
 H         -77.573105     -208.504364      -72.994118
 H         -76.728981     -209.961868      -72.850708
 H         -79.841042     -211.754486      -71.746498
 H         -78.092308     -211.881638      -71.735146
 H         -77.630997     -208.193222      -70.732170
 H         -76.018646     -208.846069      -70.905228
 H         -78.502678     -211.736023      -69.513191
 H         -79.492714     -210.222549      -69.744629
 H         -76.957031     -209.861099      -69.028358
 H         -76.610847     -211.062225      -70.212524
