20
 generated by VMD
 C         -41.864830     -101.936768      -33.767017
 N         -40.766724     -101.912354      -34.038322
 H         -39.323936     -103.720306      -32.649406
 H         -42.842567     -102.319519      -33.362507
 C         -38.292503     -103.866791      -32.202759
 C         -37.053600     -103.432564      -33.121803
 C         -37.947777     -104.495262      -30.942690
 C         -35.792717     -103.059708      -32.334206
 C         -36.788673     -103.743057      -30.227175
 C         -35.567238     -103.869392      -31.086943
 H         -37.082455     -102.651825      -33.898491
 H         -36.800079     -104.346924      -33.716560
 H         -38.763733     -104.354919      -30.269619
 H         -37.697517     -105.594894      -30.942001
 H         -35.837566     -102.007973      -32.120155
 H         -35.021252     -103.130516      -33.045597
 H         -36.616577     -104.150963      -29.181786
 H         -37.042660     -102.647652      -30.134413
 H         -34.716236     -103.316086      -30.715361
 H         -35.337738     -104.910187      -31.236961
