20
 generated by VMD
 C         -57.629642     -166.022385      -56.512512
 N         -58.134129     -166.887024      -55.869415
 H         -60.701462     -165.112503      -54.452175
 H         -57.067879     -165.392609      -57.172161
 C         -61.605511     -165.413651      -55.012714
 C         -61.783600     -166.798431      -55.651661
 C         -62.469406     -164.199539      -55.472706
 C         -63.270199     -167.031906      -55.873734
 C         -63.906258     -164.649292      -55.650768
 C         -63.950409     -165.850159      -56.515274
 H         -61.381718     -167.525314      -55.045994
 H         -61.050484     -166.778580      -56.481243
 H         -62.368366     -163.460892      -54.567062
 H         -62.081097     -163.722260      -56.341507
 H         -63.826286     -167.161942      -54.937340
 H         -63.371384     -167.965073      -56.474155
 H         -64.473557     -163.937180      -56.050056
 H         -64.517113     -164.722610      -54.740314
 H         -64.911171     -166.215164      -56.619259
 H         -63.474827     -165.658890      -57.430843
