20
 generated by VMD
 C         -47.607021     -137.989944      -46.024708
 N         -47.291149     -137.509735      -46.987793
 H         -50.595997     -136.914536      -44.737125
 H         -47.878124     -138.530212      -45.126663
 C         -51.297318     -137.788437      -44.803165
 C         -51.328323     -138.465073      -46.045925
 C         -52.566730     -137.553711      -44.034954
 C         -52.322273     -139.613571      -46.097702
 C         -53.511631     -138.703918      -44.098888
 C         -53.634262     -139.195084      -45.505630
 H         -50.318287     -138.782562      -46.448849
 H         -51.676620     -137.831787      -46.832062
 H         -52.343822     -137.404160      -42.940643
 H         -53.078636     -136.552444      -44.261978
 H         -51.933403     -140.500366      -45.444576
 H         -52.288746     -140.127045      -47.061440
 H         -54.453197     -138.523529      -43.561214
 H         -53.167973     -139.571793      -43.380096
 H         -54.372005     -140.113434      -45.664177
 H         -54.081596     -138.331406      -46.208881
