20
 generated by VMD
 C         -68.100647     -179.107468      -58.295189
 N         -67.131012     -178.628952      -57.872597
 H         -65.752205     -176.206314      -58.720997
 H         -68.926285     -179.677734      -58.669056
 C         -65.330460     -175.793365      -59.625935
 C         -66.150192     -174.755203      -60.298626
 C         -63.841057     -175.896530      -59.659084
 C         -65.411072     -173.349243      -60.244457
 C         -63.109962     -174.628174      -59.698906
 C         -63.812435     -173.623749      -60.585533
 H         -67.135109     -174.579697      -59.777210
 H         -66.295227     -175.143784      -61.280151
 H         -63.666130     -176.341644      -58.614914
 H         -63.561756     -176.718704      -60.388149
 H         -65.460709     -172.819626      -59.297947
 H         -65.837929     -172.544815      -60.840958
 H         -62.154629     -174.937744      -60.042389
 H         -62.874588     -174.089584      -58.765388
 H         -63.466904     -172.576721      -60.360184
 H         -63.740406     -173.765976      -61.641987
