20
 generated by VMD
 C         -68.280769     -193.801407      -65.729958
 N         -68.072037     -194.735229      -65.123634
 H         -70.643692     -191.847214      -67.304039
 H         -68.684677     -192.953598      -66.183014
 C         -71.550377     -191.928665      -66.718491
 C         -72.139893     -190.616089      -66.484329
 C         -72.125999     -193.124542      -66.187355
 C         -73.690628     -190.611084      -66.135017
 C         -73.040421     -192.813553      -65.053146
 C         -74.162476     -191.933655      -65.531036
 H         -71.940056     -189.933090      -67.190895
 H         -71.728554     -190.195099      -65.515236
 H         -72.587265     -193.753754      -66.937172
 H         -71.234703     -193.764282      -66.010742
 H         -74.323654     -190.254944      -67.000275
 H         -74.024323     -189.817627      -65.443626
 H         -72.474548     -192.390686      -64.159431
 H         -73.449944     -193.739090      -64.645996
 H         -74.909164     -192.466248      -66.121796
 H         -74.661850     -191.612320      -64.521431
