20
 generated by VMD
 C         -79.978775     -205.426743      -71.383965
 N         -80.147537     -206.587952      -71.513741
 H         -77.302269     -202.917206      -70.456520
 H         -79.885918     -204.346161      -71.334816
 C         -76.340828     -203.346298      -70.259193
 C         -75.136803     -202.436447      -70.429672
 C         -76.009819     -204.797470      -70.149323
 C         -73.804420     -203.103226      -70.538589
 C         -74.799431     -205.029602      -69.219551
 C         -73.501862     -204.153046      -69.455849
 H         -75.075836     -201.677353      -69.672905
 H         -75.202812     -201.869186      -71.401642
 H         -76.840523     -205.384232      -69.586037
 H         -75.961067     -205.199463      -71.243134
 H         -73.018028     -202.342697      -70.609360
 H         -73.786812     -203.528244      -71.588722
 H         -74.489769     -206.009918      -69.256348
 H         -75.198921     -204.844406      -68.168335
 H         -73.085831     -203.679565      -68.609734
 H         -72.744331     -204.860703      -69.833099
