20
 generated by VMD
 C          -5.746458      -21.470598        1.722175
 N          -6.482066      -22.294977        1.600656
 H          -5.247352      -19.063459       -0.599478
 H          -6.282137      -20.224815        0.059735
 C          -6.062132      -19.754805       -0.936480
 C          -5.623363      -20.950613       -1.778468
 C          -7.150518      -18.988260       -1.565817
 C          -6.801284      -21.853197       -2.167122
 C          -8.341232      -19.895384       -1.873739
 C          -7.864279      -20.986866       -2.817039
 H          -4.839213      -21.455387       -1.300725
 H          -5.210891      -20.623444       -2.777426
 H          -7.490780      -18.368734       -0.774565
 H          -6.709745      -18.584673       -2.474016
 H          -7.267427      -22.336941       -1.326719
 H          -6.447220      -22.575565       -2.909709
 H          -9.051006      -19.277443       -2.446890
 H          -8.784264      -20.285625       -0.962560
 H          -8.690041      -21.629179       -3.041290
 H          -7.483915      -20.566666       -3.727561
