20
 generated by VMD
 C         -79.457260     -208.932251      -76.523026
 N         -79.048538     -210.008057      -76.707817
 H         -77.393906     -209.860031      -73.354942
 H         -79.822006     -207.979935      -76.286392
 C         -78.014435     -210.200882      -72.511398
 C         -77.009384     -210.643951      -71.371864
 C         -79.118835     -211.064407      -72.944183
 C         -77.762329     -211.364136      -70.186203
 C         -79.831375     -211.744141      -71.724113
 C         -78.765152     -212.415894      -70.746231
 H         -76.235634     -209.929184      -71.188583
 H         -76.502625     -211.449600      -71.780960
 H         -79.873100     -210.607864      -73.543686
 H         -78.675598     -211.916809      -73.551430
 H         -78.357635     -210.546326      -69.781845
 H         -77.074814     -211.802109      -69.460564
 H         -80.511185     -212.447632      -72.022713
 H         -80.476936     -211.012177      -71.068565
 H         -79.299385     -212.944275      -69.936577
 H         -78.136154     -213.221970      -71.164742
