20
 generated by VMD
 C         -49.820614     -127.740631      -39.072971
 N         -49.526810     -126.672981      -38.754860
 H         -47.196617     -125.829872      -40.322178
 H         -49.910263     -128.744141      -39.504375
 C         -46.250862     -125.248268      -40.669807
 C         -44.934780     -125.769241      -40.575661
 C         -46.446552     -123.826019      -41.152554
 C         -43.667702     -124.941185      -40.848309
 C         -45.187237     -122.971695      -41.524757
 C         -44.005211     -123.477570      -40.683235
 H         -44.823963     -126.747650      -41.084164
 H         -44.951855     -125.905121      -39.562214
 H         -47.111813     -123.847137      -42.056164
 H         -47.200081     -123.503036      -40.326824
 H         -43.392124     -125.149017      -41.861458
 H         -42.816505     -125.260925      -40.259655
 H         -45.687283     -121.934441      -41.427078
 H         -45.043045     -123.068222      -42.647530
 H         -43.120430     -122.863029      -40.786518
 H         -44.348789     -123.468376      -39.588474
