20
 generated by VMD
 C         -69.732803     -180.958435      -61.224777
 N         -69.153839     -180.399139      -62.090252
 H         -66.774597     -179.834900      -59.263187
 H         -70.390457     -181.409546      -60.531914
 C         -66.188271     -179.032547      -59.743008
 C         -65.595963     -179.227432      -61.099888
 C         -65.800049     -177.926895      -58.876446
 C         -65.273453     -177.865067      -61.735332
 C         -65.467552     -176.558456      -59.608696
 C         -64.520348     -176.927200      -60.795891
 H         -66.139175     -179.977646      -61.643967
 H         -64.652611     -179.819016      -60.931606
 H         -66.558189     -177.626221      -58.202011
 H         -64.896027     -178.169952      -58.269260
 H         -66.212433     -177.451233      -62.153652
 H         -64.675987     -178.243500      -62.580704
 H         -65.105927     -175.882660      -58.818497
 H         -66.358345     -176.157486      -60.086636
 H         -64.002327     -176.084900      -61.211422
 H         -63.764381     -177.443985      -60.333111
