20
 generated by VMD
 C         -46.535023     -124.477577      -36.574989
 N         -46.997910     -125.175804      -35.746964
 H         -44.814548     -122.166763      -37.902245
 H         -46.216057     -123.741432      -37.341839
 C         -44.644245     -121.886360      -38.993336
 C         -43.347076     -121.756874      -39.758667
 C         -45.770817     -121.008766      -39.512707
 C         -43.476063     -121.923347      -41.285786
 C         -45.947121     -121.185097      -41.040253
 C         -44.674404     -121.269966      -41.864155
 H         -42.610344     -122.410805      -39.322605
 H         -42.698296     -120.851189      -39.628975
 H         -46.672760     -121.210960      -38.872257
 H         -45.422913     -120.044106      -39.345573
 H         -43.559475     -123.029305      -41.399166
 H         -42.666946     -121.591881      -41.853268
 H         -46.612831     -120.339966      -41.309460
 H         -46.597984     -122.180412      -41.158882
 H         -44.938786     -121.716278      -42.782539
 H         -44.460712     -120.173210      -41.923038
