20
 generated by VMD
 C         -38.704254     -113.728531      -35.673882
 N         -37.931297     -114.579857      -35.735966
 H         -41.353695     -114.642059      -35.785000
 H         -39.329834     -112.876503      -35.581379
 C         -42.277298     -114.428772      -36.262924
 C         -42.476025     -114.654251      -37.715332
 C         -43.470718     -114.327438      -35.416943
 C         -43.684307     -115.438194      -38.098759
 C         -44.516613     -115.367142      -35.775982
 C         -44.948475     -115.142700      -37.288792
 H         -41.663471     -115.084076      -38.211243
 H         -42.545101     -113.725227      -38.241100
 H         -43.093216     -114.396538      -34.440182
 H         -43.855911     -113.349640      -35.626476
 H         -43.304493     -116.474312      -38.186344
 H         -43.903309     -115.107346      -39.167183
 H         -45.433380     -115.207054      -35.269630
 H         -44.174393     -116.302986      -35.490734
 H         -45.823483     -115.780540      -37.480583
 H         -45.425228     -114.052078      -37.489594
