20
 generated by VMD
 C         -68.247147     -193.742950      -65.694870
 N         -68.096695     -194.780701      -65.121780
 H         -70.759216     -192.006668      -67.513199
 H         -68.724564     -192.915253      -66.148079
 C         -71.542343     -191.939423      -66.767235
 C         -72.186218     -190.634186      -66.413170
 C         -72.143959     -193.201797      -66.238144
 C         -73.631615     -190.607971      -66.169800
 C         -73.065582     -192.850418      -65.093079
 C         -74.177551     -191.913193      -65.471802
 H         -71.823586     -189.917847      -67.268784
 H         -71.708275     -190.329712      -65.498497
 H         -72.768105     -193.521469      -67.119293
 H         -71.335922     -193.865326      -65.837982
 H         -74.251732     -190.468735      -67.029701
 H         -73.828972     -189.821487      -65.431519
 H         -72.450508     -192.389069      -64.350838
 H         -73.556770     -193.686539      -64.651741
 H         -74.830338     -192.387741      -66.159966
 H         -74.863541     -191.720551      -64.572327
