20
 generated by VMD
 C         -66.715408     -189.650787      -66.552612
 N         -66.228287     -189.382706      -67.594460
 H         -70.502068     -190.320999      -65.667328
 H         -67.002571     -189.949615      -65.563492
 C         -70.769478     -190.030350      -64.632301
 C         -71.969528     -190.863586      -64.120995
 C         -70.420387     -188.711487      -64.095345
 C         -73.200676     -189.894806      -64.008812
 C         -71.642395     -187.858124      -63.724670
 C         -72.841614     -188.693344      -63.117352
 H         -71.715370     -191.192337      -63.117374
 H         -72.188683     -191.775330      -64.741447
 H         -69.907722     -188.821625      -63.157524
 H         -69.908119     -188.108246      -64.861679
 H         -74.170235     -190.394531      -63.682945
 H         -73.486206     -189.539383      -64.983521
 H         -71.988213     -187.491669      -64.707077
 H         -71.400795     -186.945557      -63.017193
 H         -72.809135     -188.991852      -62.139240
 H         -73.656670     -187.923538      -63.150848
