20
 generated by VMD
 C         -59.450966     -158.345123      -57.438103
 N         -58.437630     -158.420685      -57.969425
 H         -59.768997     -158.770111      -54.154800
 H         -60.416294     -158.294556      -57.007977
 C         -59.822960     -159.486923      -53.302719
 C         -58.613789     -159.361496      -52.362755
 C         -60.708668     -160.682816      -53.276134
 C         -58.516209     -160.493652      -51.309059
 C         -60.676605     -161.590454      -52.070919
 C         -59.210136     -161.821457      -51.632725
 H         -58.659996     -158.456985      -51.807514
 H         -57.711929     -159.380341      -52.958229
 H         -61.752998     -160.424850      -53.576263
 H         -60.212315     -161.157730      -54.187546
 H         -58.753117     -160.043594      -50.370544
 H         -57.446354     -160.640839      -50.972610
 H         -61.174500     -162.571823      -52.185261
 H         -61.266026     -161.004761      -51.295399
 H         -59.233330     -162.382126      -50.711212
 H         -58.610073     -162.530457      -52.150707
