20
 generated by VMD
 C         -41.432987     -120.113014      -33.997898
 N         -41.945339     -120.938072      -34.624653
 H         -43.607628     -119.188385      -37.168659
 H         -41.216251     -119.314590      -33.384346
 C         -43.945152     -118.777077      -38.064888
 C         -43.089081     -118.603882      -39.315262
 C         -45.264500     -118.072433      -38.023357
 C         -43.964607     -118.730835      -40.563698
 C         -45.992195     -118.336540      -39.340855
 C         -45.298817     -117.906525      -40.617023
 H         -42.292088     -119.377655      -39.302231
 H         -42.433781     -117.768875      -39.245258
 H         -45.910610     -118.436775      -37.115307
 H         -44.981857     -117.022346      -37.848633
 H         -44.185558     -119.739014      -40.754700
 H         -43.309200     -118.339668      -41.364326
 H         -46.990002     -117.924538      -39.353977
 H         -46.122150     -119.570961      -39.355782
 H         -45.739567     -118.381599      -41.560631
 H         -45.210140     -116.835754      -40.707226
