20
 generated by VMD
 C          -6.794573      -23.307182        3.326359
 N          -6.639960      -22.711775        2.413818
 H          -7.547116      -22.353619       -0.429617
 H          -8.821338      -22.203917       -1.740450
 C          -7.757951      -21.982584       -1.465959
 C          -6.925925      -22.691933       -2.474548
 C          -7.531838      -20.502468       -1.497885
 C          -7.054462      -22.228794       -3.920222
 C          -7.661791      -19.941231       -2.921214
 C          -6.743777      -20.724094       -3.920629
 H          -7.130798      -23.756481       -2.529084
 H          -5.863142      -22.658817       -2.170571
 H          -8.246787      -20.108427       -0.823876
 H          -6.539203      -20.206188       -1.123829
 H          -8.019017      -22.548016       -4.323001
 H          -6.302650      -22.733831       -4.516414
 H          -7.329001      -18.915443       -2.824096
 H          -8.703123      -19.935936       -3.283422
 H          -6.996258      -20.294420       -4.923788
 H          -5.632589      -20.584227       -3.807673
