20
 generated by VMD
 C         -48.435989     -135.703522      -46.397369
 N         -47.451408     -135.762238      -45.716228
 H         -52.169563     -134.841232      -45.857693
 H         -49.458862     -135.612732      -46.714436
 C         -51.699409     -135.693954      -45.178646
 C         -52.417007     -137.050491      -45.514103
 C         -51.321777     -135.597427      -43.754295
 C         -51.520546     -138.236908      -45.055298
 C         -50.433376     -136.783554      -43.318707
 C         -51.161777     -138.175735      -43.558952
 H         -52.849232     -137.034897      -46.577194
 H         -53.276936     -137.017120      -44.897308
 H         -50.617432     -134.702789      -43.700695
 H         -52.175121     -135.375229      -43.011543
 H         -50.623676     -138.228592      -45.685871
 H         -52.079834     -139.173401      -45.155640
 H         -50.359695     -136.653503      -42.224503
 H         -49.469002     -136.750397      -43.799351
 H         -50.421261     -139.024414      -43.285393
 H         -52.042900     -138.228165      -42.866570
