20
 generated by VMD
 C         -78.726990     -208.016464      -76.773079
 N         -78.786186     -208.123550      -75.610405
 H         -79.144562     -210.177017      -73.549683
 H         -78.806961     -208.016449      -77.842453
 C         -78.644569     -210.232666      -72.570267
 C         -77.366142     -209.485703      -72.156029
 C         -79.151894     -211.264084      -71.670319
 C         -77.124840     -209.401672      -70.695625
 C         -78.754982     -211.144867      -70.170044
 C         -77.379639     -210.639999      -70.009613
 H         -77.300056     -208.520508      -72.612305
 H         -76.604851     -210.039963      -72.619026
 H         -80.227165     -211.225037      -71.530983
 H         -78.874214     -212.184952      -72.139793
 H         -77.916321     -208.769730      -70.311684
 H         -76.162102     -208.897156      -70.451889
 H         -79.007706     -212.027054      -69.709763
 H         -79.426872     -210.317291      -69.639336
 H         -77.258560     -210.424881      -68.965874
 H         -76.520149     -211.222076      -70.199883
