20
 generated by VMD
 C         -12.795999      -31.215414       -8.240242
 N         -12.344869      -30.239811       -8.023347
 H         -11.770879      -33.459114       -7.436302
 H         -12.450359      -32.901627       -5.870359
 C         -11.712440      -33.587566       -6.295758
 C         -10.336570      -33.374752       -5.731622
 C         -12.223725      -35.020184       -6.034060
 C         -10.346898      -33.686180       -4.223367
 C         -12.182559      -35.324364       -4.540019
 C         -10.889331      -35.054470       -3.898294
 H         -10.046797      -32.286022       -5.906921
 H          -9.630217      -34.037998       -6.181372
 H         -13.259581      -35.193813       -6.334477
 H         -11.589046      -35.794540       -6.485674
 H         -11.063740      -32.968494       -3.822933
 H          -9.285436      -33.589638       -3.895224
 H         -12.403740      -36.356098       -4.402402
 H         -12.932503      -34.675858       -4.053013
 H         -10.993074      -35.261913       -2.867450
 H         -10.140168      -35.782387       -4.282921
