20
 generated by VMD
 C         -30.461666      -92.924019      -25.894394
 N         -29.871073      -92.502266      -25.009140
 H         -32.711170      -89.731773      -26.488174
 H         -30.848129      -93.293373      -26.757336
 C         -33.527920      -89.921242      -27.219030
 C         -33.980186      -91.270988      -27.048212
 C         -33.405796      -89.309898      -28.568970
 C         -35.284492      -91.599762      -27.827875
 C         -34.712811      -89.469940      -29.352032
 C         -35.172268      -90.971786      -29.261776
 H         -34.135311      -91.360359      -25.958197
 H         -33.043705      -91.835556      -27.326328
 H         -33.185108      -88.188667      -28.591364
 H         -32.623402      -89.890030      -29.190607
 H         -36.153824      -91.204315      -27.237463
 H         -35.333420      -92.660408      -27.889675
 H         -34.485943      -89.182365      -30.394201
 H         -35.534306      -88.806961      -29.034311
 H         -36.220390      -90.970108      -29.554174
 H         -34.643070      -91.493469      -30.037806
