20
 generated by VMD
 C         -18.097925      -48.554531       -7.374745
 N         -18.486610      -48.909016       -6.388396
 H         -16.255627      -48.133804      -10.196738
 H         -16.068924      -49.038448      -11.578817
 C         -16.314434      -48.054459      -11.266706
 C         -15.214780      -47.104740      -11.761923
 C         -17.738632      -47.670815      -11.708157
 C         -15.317784      -46.921150      -13.295609
 C         -17.741920      -47.418465      -13.228684
 C         -16.688488      -46.497219      -13.783143
 H         -14.183043      -47.478764      -11.480798
 H         -15.513472      -46.219120      -11.234792
 H         -18.454739      -48.496284      -11.533117
 H         -18.080481      -46.729340      -11.197444
 H         -15.052910      -47.874634      -13.748981
 H         -14.633265      -46.168591      -13.675159
 H         -18.707426      -47.075943      -13.475298
 H         -17.737389      -48.311714      -13.893815
 H         -16.697449      -46.477070      -14.865498
 H         -16.877920      -45.489685      -13.518930
