20
 generated by VMD
 C         -48.023220     -133.831268      -47.528126
 N         -48.129635     -133.308594      -48.625652
 H         -49.307369     -134.156723      -43.800243
 H         -48.238953     -134.559509      -46.756332
 C         -49.991623     -134.972488      -43.622936
 C         -50.194366     -136.149887      -44.528542
 C         -51.056110     -134.711975      -42.614239
 C         -50.472988     -137.472244      -43.628948
 C         -51.337753     -135.962158      -41.758312
 C         -51.671009     -137.116470      -42.688118
 H         -49.214218     -136.327469      -45.164467
 H         -51.024616     -136.016983      -45.240669
 H         -50.681152     -133.875885      -41.981476
 H         -51.928791     -134.309555      -43.183376
 H         -49.641727     -137.880157      -43.010719
 H         -50.786522     -138.163788      -44.396763
 H         -52.182240     -135.753220      -40.997120
 H         -50.378178     -136.169464      -41.286484
 H         -52.089451     -137.923630      -42.137249
 H         -52.673599     -136.937759      -43.265499
