20
 generated by VMD
 C         -70.712067     -181.860916      -63.990662
 N         -69.758034     -182.497635      -63.800331
 H         -68.729149     -180.887909      -61.498905
 H         -71.553741     -181.248489      -64.119278
 C         -67.748108     -180.696793      -61.075562
 C         -66.915886     -181.932098      -60.704048
 C         -67.347183     -179.277863      -60.726212
 C         -65.371101     -181.642395      -61.013840
 C         -65.796906     -179.107422      -60.669071
 C         -65.081779     -180.333252      -60.260315
 H         -67.373779     -182.861496      -61.180180
 H         -66.940163     -181.965851      -59.487770
 H         -67.755219     -178.712601      -61.493370
 H         -67.850769     -179.033920      -59.740166
 H         -65.114738     -181.481903      -62.069530
 H         -64.658180     -182.424103      -60.801064
 H         -65.525070     -178.197845      -60.139458
 H         -65.504463     -178.822800      -61.715923
 H         -64.046227     -180.115799      -60.360149
 H         -65.245201     -180.561386      -59.112804
