20
 generated by VMD
 C         -17.854109      -48.426441       -6.970230
 N         -17.333109      -47.616829       -6.409125
 H         -16.414865      -48.694103      -10.420939
 H         -15.775600      -48.980820      -11.900766
 C         -16.338875      -48.208969      -11.370669
 C         -15.543500      -46.858421      -11.367891
 C         -17.631439      -47.877979      -12.076403
 C         -15.447577      -45.962475      -12.640045
 C         -17.426861      -47.172020      -13.437978
 C         -16.803846      -45.791775      -13.292114
 H         -14.557389      -47.140636      -11.033097
 H         -15.986604      -46.257587      -10.534903
 H         -18.073957      -48.908047      -12.305974
 H         -18.323309      -47.277889      -11.429459
 H         -14.803329      -46.432774      -13.390032
 H         -15.040027      -44.964893      -12.384317
 H         -18.386074      -46.964554      -13.959474
 H         -16.892963      -47.874348      -14.084585
 H         -16.655903      -45.420376      -14.282708
 H         -17.450451      -45.172897      -12.718999
