20
 generated by VMD
 C         -78.818748     -204.184586      -70.360390
 N         -79.844345     -204.629593      -70.525360
 H         -76.465012     -203.485886      -68.527145
 H         -77.870316     -203.724945      -70.498177
 C         -75.746208     -203.206741      -69.220078
 C         -75.786308     -201.903458      -69.878937
 C         -74.470551     -203.916473      -68.985695
 C         -74.542480     -201.573425      -70.802635
 C         -73.302628     -202.931641      -68.916824
 C         -73.328163     -202.263016      -70.345985
 H         -75.712540     -201.171967      -69.040291
 H         -76.733185     -201.603760      -70.346596
 H         -74.517197     -204.497543      -68.020531
 H         -74.250031     -204.604263      -69.802635
 H         -74.347244     -200.515747      -70.758087
 H         -74.723511     -201.741165      -71.852341
 H         -72.404625     -203.588211      -68.772804
 H         -73.445168     -202.346832      -68.023460
 H         -72.532089     -201.401398      -70.385811
 H         -73.080002     -203.137817      -71.030724
