20
 generated by VMD
 C         -60.681019     -153.418045      -51.920372
 N         -61.407032     -154.313080      -51.717655
 H         -57.589195     -153.800903      -51.868641
 H         -60.055912     -152.537552      -51.947227
 C         -56.685940     -153.441025      -51.399006
 C         -56.488052     -153.764648      -49.970879
 C         -56.034878     -152.243164      -52.019482
 C         -55.029228     -153.936066      -49.726562
 C         -54.544075     -152.422318      -51.676468
 C         -54.309162     -152.593613      -50.214340
 H         -56.852055     -154.774139      -49.737637
 H         -57.130207     -153.216583      -49.284744
 H         -56.221287     -152.144318      -53.077259
 H         -56.479568     -151.324753      -51.545807
 H         -54.568485     -154.885254      -50.182014
 H         -54.776478     -154.033676      -48.680607
 H         -54.000336     -151.474930      -52.015930
 H         -54.180553     -153.135513      -52.290070
 H         -53.240314     -152.611954      -49.902294
 H         -54.756317     -151.712646      -49.676819
