20
 generated by VMD
 C         -40.580925     -106.672592      -37.304825
 N         -39.530247     -106.684113      -37.823414
 H         -38.417027     -108.435211      -34.797535
 H         -41.494286     -106.502640      -36.758442
 C         -39.190620     -108.853485      -34.114780
 C         -38.623348     -109.882286      -33.120586
 C         -40.589851     -108.826050      -34.398483
 C         -39.621449     -110.381020      -32.052296
 C         -41.523602     -109.263100      -33.249981
 C         -41.059044     -110.610016      -32.760284
 H         -37.842892     -109.431168      -32.414906
 H         -38.247559     -110.816719      -33.537689
 H         -40.875507     -107.843513      -34.610371
 H         -40.776218     -109.392303      -35.342007
 H         -39.607841     -109.699867      -31.237530
 H         -39.357147     -111.397263      -31.603815
 H         -42.569714     -109.393044      -33.752277
 H         -41.513954     -108.478928      -32.470936
 H         -41.874943     -111.093407      -32.016899
 H         -40.943741     -111.296364      -33.550854
