20
 generated by VMD
 C         -79.361694     -207.164429      -75.769897
 N         -80.209473     -207.084625      -75.023956
 H         -77.476273     -208.221268      -73.143425
 H         -78.419312     -207.166351      -76.339073
 C         -77.114540     -208.720734      -72.191856
 C         -75.931374     -208.237946      -71.543777
 C         -77.992416     -209.783813      -71.583374
 C         -76.247604     -207.897736      -70.121933
 C         -78.219200     -209.565292      -70.073380
 C         -76.937347     -209.196732      -69.328362
 H         -75.475029     -207.425537      -72.105293
 H         -75.111877     -208.921356      -71.348114
 H         -78.895027     -209.894135      -72.242233
 H         -77.513977     -210.778244      -71.657471
 H         -76.846809     -207.012863      -69.997902
 H         -75.335503     -207.650497      -69.558098
 H         -78.728165     -210.369141      -69.592308
 H         -78.856857     -208.664658      -69.990044
 H         -76.979927     -208.686020      -68.328690
 H         -76.334953     -210.098877      -69.182144
