20
 generated by VMD
 C         -69.269035     -194.631638      -65.015114
 N         -68.428497     -193.859253      -65.125061
 H         -71.181107     -194.496338      -67.121559
 H         -70.190781     -195.225906      -65.065308
 C         -71.883041     -193.684113      -67.086494
 C         -71.658134     -192.286835      -66.709923
 C         -73.328667     -194.165161      -67.192085
 C         -72.580185     -192.124527      -65.443512
 C         -74.344490     -193.020096      -67.033310
 C         -74.041031     -192.183838      -65.756767
 H         -71.811714     -191.541580      -67.498024
 H         -70.523438     -192.339615      -66.296295
 H         -73.436157     -194.610260      -68.148079
 H         -73.518509     -194.917480      -66.363678
 H         -72.284447     -191.092682      -65.073227
 H         -72.267601     -192.903152      -64.756096
 H         -75.336388     -193.398239      -66.853661
 H         -74.343613     -192.393539      -67.954369
 H         -74.445435     -191.257401      -65.941978
 H         -74.639671     -192.641388      -64.798759
