20
 generated by VMD
 C         -25.740671      -71.719734      -16.955204
 N         -26.577524      -72.380867      -16.554258
 H         -24.275816      -69.024544      -18.925865
 H         -25.013828      -70.918388      -17.368183
 C         -24.777016      -69.469833      -19.785446
 C         -24.057428      -70.610970      -20.377293
 C         -25.849424      -68.717186      -20.396193
 C         -25.153782      -71.491005      -21.198795
 C         -26.704279      -69.573845      -21.135120
 C         -25.940359      -70.537453      -21.997541
 H         -23.609528      -71.335686      -19.700207
 H         -23.417025      -70.336441      -21.155710
 H         -26.489931      -68.244507      -19.671551
 H         -25.427885      -67.976181      -21.030634
 H         -25.701838      -72.050034      -20.404745
 H         -24.544630      -72.265366      -21.690996
 H         -27.286762      -68.899536      -21.814362
 H         -27.478712      -70.137222      -20.627268
 H         -26.707447      -71.044899      -22.661303
 H         -25.146986      -70.023453      -22.547245
