20
 generated by VMD
 C         -70.236305     -183.353836      -65.784340
 N         -69.318283     -182.646072      -65.932549
 H         -68.539200     -184.989380      -63.020435
 H         -71.110764     -184.070175      -65.708443
 C         -68.020309     -184.328537      -62.298351
 C         -68.123947     -184.596024      -60.774666
 C         -67.955940     -182.889725      -62.669346
 C         -67.214142     -183.740753      -59.844738
 C         -67.090088     -182.007690      -61.741898
 C         -67.554710     -182.269516      -60.294201
 H         -68.173325     -185.710358      -60.524780
 H         -69.188393     -184.208221      -60.572479
 H         -67.593575     -182.810226      -63.725136
 H         -68.945267     -182.500183      -62.723881
 H         -66.234573     -184.123642      -59.952396
 H         -67.580490     -183.966278      -58.844662
 H         -67.013199     -180.945007      -61.975533
 H         -66.041496     -182.279175      -61.805408
 H         -67.051361     -181.461517      -59.586315
 H         -68.664680     -182.099976      -60.157803
