20
 generated by VMD
 C         -10.762707      -35.528992       -9.259549
 N         -10.260549      -34.960354       -8.428235
 H         -12.846689      -36.946411       -6.877118
 H         -14.241354      -37.345467       -5.872229
 C         -13.590301      -37.704426       -6.694231
 C         -12.830514      -39.038132       -6.586074
 C         -14.547068      -37.775719       -7.943445
 C         -13.766049      -40.244026       -6.570953
 C         -15.600792      -38.846054       -7.738767
 C         -14.877584      -40.245487       -7.595146
 H         -12.200454      -39.010326       -5.657802
 H         -12.177548      -39.225430       -7.505081
 H         -15.083049      -36.881565       -8.030218
 H         -13.992914      -38.061012       -8.855114
 H         -14.236339      -40.204700       -5.603809
 H         -13.144659      -41.144638       -6.709260
 H         -16.328358      -38.859241       -8.492596
 H         -16.111713      -38.590038       -6.779713
 H         -15.562049      -41.006504       -7.275031
 H         -14.524226      -40.543198       -8.582294
