20
 generated by VMD
 C         -30.460371      -74.284874      -20.945036
 N         -30.474453      -75.352730      -20.493006
 H         -27.643780      -74.681297      -19.809269
 H         -30.551409      -73.341949      -21.312271
 C         -26.708818      -74.532570      -20.256516
 C         -26.215496      -75.638847      -21.129269
 C         -25.934479      -73.276100      -20.384619
 C         -26.038057      -75.310799      -22.520327
 C         -25.723351      -72.817101      -21.824110
 C         -25.119108      -74.094948      -22.605671
 H         -26.900246      -76.479881      -20.945261
 H         -25.258192      -76.034683      -20.642212
 H         -26.391369      -72.507553      -19.749035
 H         -24.991348      -73.305458      -20.029659
 H         -26.993900      -75.169479      -23.066984
 H         -25.461817      -76.122711      -23.012056
 H         -25.004976      -71.963425      -21.887966
 H         -26.643835      -72.518623      -22.395706
 H         -25.054899      -73.715820      -23.663364
 H         -24.169779      -74.481155      -22.193174
