20
 generated by VMD
 C         -26.316202      -71.887062      -17.427799
 N         -26.725126      -72.650352      -16.676199
 H         -24.168539      -69.408760      -18.772087
 H         -25.792685      -71.253822      -18.201109
 C         -24.723255      -69.707970      -19.617680
 C         -24.147533      -70.803139      -20.396904
 C         -25.698654      -68.815941      -20.475651
 C         -25.089991      -71.653587      -21.116640
 C         -26.706818      -69.742027      -21.263485
 C         -26.037121      -70.877922      -22.030909
 H         -23.476236      -71.459435      -19.748466
 H         -23.483994      -70.568291      -21.200283
 H         -26.234465      -68.112473      -19.868093
 H         -25.176805      -68.202484      -21.162212
 H         -25.732170      -72.130386      -20.284954
 H         -24.591333      -72.469574      -21.705944
 H         -27.345854      -69.103165      -21.895683
 H         -27.251381      -70.168808      -20.493317
 H         -26.856352      -71.583557      -22.409550
 H         -25.596216      -70.436104      -22.967396
