20
 generated by VMD
 C         -52.767147     -147.200760      -45.366238
 N         -53.866199     -147.380325      -45.119011
 H         -54.937740     -147.492081      -48.273048
 H         -51.750000     -147.174377      -45.751606
 C         -54.552250     -146.532211      -48.621529
 C         -53.318993     -146.360016      -49.417290
 C         -55.097256     -145.225891      -48.037754
 C         -53.380192     -145.158768      -50.267017
 C         -55.178333     -144.020630      -49.002102
 C         -53.940220     -143.902390      -49.700661
 H         -52.959244     -147.235199      -49.975483
 H         -52.563400     -146.190659      -48.657192
 H         -56.085072     -145.622391      -47.689510
 H         -54.577591     -144.989517      -47.082985
 H         -53.928013     -145.279633      -51.266541
 H         -52.341137     -145.028473      -50.605724
 H         -55.530666     -143.135483      -48.470547
 H         -55.939209     -144.178604      -49.685379
 H         -53.949287     -143.107452      -50.388405
 H         -53.148121     -143.542236      -49.046139
