20
 generated by VMD
 C         -25.660112      -71.308281      -16.857117
 N         -26.182453      -72.165947      -16.321268
 H         -24.095589      -68.920120      -18.802320
 H         -25.295725      -70.369331      -17.445112
 C         -24.651293      -69.384293      -19.609285
 C         -23.978300      -70.428047      -20.424114
 C         -25.787582      -68.660179      -20.198202
 C         -25.068186      -71.137703      -21.254019
 C         -26.854561      -69.497299      -21.058157
 C         -26.000786      -70.327156      -22.057804
 H         -23.441250      -71.250587      -19.900936
 H         -23.303894      -69.927864      -21.217075
 H         -26.319721      -68.189034      -19.403576
 H         -25.425470      -67.791298      -20.807665
 H         -25.608711      -71.753723      -20.526241
 H         -24.500280      -71.790710      -21.913349
 H         -27.743967      -69.069031      -21.455395
 H         -27.367458      -70.198013      -20.330284
 H         -26.529205      -71.066330      -22.662073
 H         -25.445988      -69.740059      -22.829142
