20
 generated by VMD
 C          -9.439494      -24.947495        0.670226
 N         -10.299879      -25.436384        1.205598
 H          -6.551951      -23.291435       -0.639613
 H          -8.046549      -22.606279       -1.199730
 C          -7.106665      -23.139101       -1.609524
 C          -7.305202      -24.459013       -2.261519
 C          -6.388202      -22.105810       -2.604547
 C          -8.106602      -24.311106       -3.556806
 C          -7.164221      -21.924538       -3.921849
 C          -7.450599      -23.325500       -4.563508
 H          -7.867974      -25.043482       -1.616683
 H          -6.382864      -25.008696       -2.510713
 H          -6.329183      -21.150656       -2.104378
 H          -5.383942      -22.524565       -2.756882
 H          -9.147656      -23.965454       -3.352264
 H          -8.088642      -25.313673       -4.025915
 H          -6.554405      -21.354530       -4.663485
 H          -8.093397      -21.362022       -3.699071
 H          -8.153300      -23.190348       -5.369134
 H          -6.506787      -23.674835       -4.945384
