20
 generated by VMD
 C         -28.491383      -82.473045      -26.330353
 N         -27.885586      -82.560188      -27.287159
 H         -31.387739      -83.793396      -26.398134
 H         -29.011610      -82.236679      -25.346180
 C         -31.301542      -84.589294      -25.763849
 C         -30.744156      -84.444702      -24.300545
 C         -31.893108      -85.950188      -26.026028
 C         -31.719828      -84.814651      -23.265841
 C         -32.970436      -86.312614      -25.015976
 C         -32.337399      -86.201187      -23.586351
 H         -30.496250      -83.408432      -24.013094
 H         -29.689342      -84.979988      -24.242575
 H         -32.276726      -85.901871      -27.033905
 H         -31.103580      -86.770607      -26.063631
 H         -32.464207      -83.993301      -23.316420
 H         -31.199759      -84.838745      -22.249220
 H         -33.422173      -87.332428      -25.118172
 H         -33.760532      -85.556190      -25.040289
 H         -33.130589      -86.355896      -22.919313
 H         -31.590784      -87.038773      -23.556644
