20
 generated by VMD
 C         -57.280605     -163.111191      -56.467960
 N         -57.159027     -162.318497      -57.292812
 H         -59.684212     -165.080276      -54.860329
 H         -57.357426     -163.844711      -55.662567
 C         -60.698452     -164.557510      -54.723400
 C         -61.319061     -164.837769      -53.401844
 C         -61.582481     -164.445465      -55.906891
 C         -62.377956     -163.752975      -53.183624
 C         -62.899490     -163.798904      -55.594097
 C         -63.426682     -164.073761      -54.201340
 H         -60.543335     -164.580521      -52.604263
 H         -61.570267     -165.889511      -53.123352
 H         -61.210911     -163.962769      -56.719444
 H         -61.700130     -165.465652      -56.279461
 H         -61.960701     -162.691254      -53.289330
 H         -62.767761     -163.966812      -52.161152
 H         -63.509037     -164.198273      -56.371273
 H         -62.635979     -162.791641      -55.655392
 H         -64.331657     -163.487488      -54.105896
 H         -63.877804     -165.104568      -54.123035
