20
 generated by VMD
 C         -18.142206      -49.897221       -8.814398
 N         -19.252321      -49.959885       -8.964963
 H         -16.376102      -47.186661      -10.016912
 H         -17.250376      -48.636539      -10.469425
 C         -16.716972      -47.798496      -10.855089
 C         -15.470330      -48.330231      -11.590217
 C         -17.757219      -47.027622      -11.705928
 C         -15.937858      -49.154148      -12.882946
 C         -18.067450      -47.687988      -13.041970
 C         -16.819193      -48.279282      -13.740836
 H         -14.894169      -49.079018      -10.982494
 H         -14.888428      -47.470394      -11.924784
 H         -18.721302      -47.035782      -11.169908
 H         -17.445885      -45.956345      -11.883692
 H         -16.565895      -49.962276      -12.467514
 H         -15.102397      -49.519653      -13.461686
 H         -18.539598      -46.867809      -13.735528
 H         -18.833797      -48.445972      -12.916659
 H         -17.071424      -48.918365      -14.555480
 H         -16.283035      -47.481182      -14.214140
