20
 generated by VMD
 C         -15.774487      -47.646988       -6.560564
 N         -15.790366      -46.575558       -6.278269
 H         -16.799746      -47.622688       -9.987724
 H         -15.312449      -47.630859      -11.101157
 C         -16.332294      -47.212482      -10.903640
 C         -16.345901      -45.691463      -10.775278
 C         -17.266108      -47.496410      -12.083244
 C         -16.144659      -44.776276      -11.952001
 C         -16.870045      -46.681396      -13.320891
 C         -16.991512      -45.124126      -13.153122
 H         -15.855323      -45.349785       -9.865996
 H         -17.422674      -45.471397      -10.500746
 H         -17.266560      -48.593513      -12.308963
 H         -18.327284      -47.292900      -11.764777
 H         -15.090488      -44.702225      -12.292872
 H         -16.363756      -43.737610      -11.602627
 H         -17.564362      -47.011024      -14.068545
 H         -15.867043      -46.825073      -13.611992
 H         -16.705393      -44.545105      -13.980433
 H         -18.033443      -44.917381      -12.952654
