20
 generated by VMD
 C         -31.403765      -93.352295      -26.123657
 N         -31.981932      -93.896072      -25.292030
 H         -33.669430      -94.350273      -28.130955
 H         -31.035229      -92.862099      -26.947182
 C         -34.050697      -93.346809      -28.341301
 C         -35.536404      -93.083755      -28.127974
 C         -33.342072      -92.741211      -29.529039
 C         -35.762211      -91.594444      -28.200609
 C         -33.756378      -91.320953      -29.687931
 C         -35.304188      -91.023232      -29.535006
 H         -35.803947      -93.455368      -27.177679
 H         -36.004208      -93.854797      -28.776321
 H         -32.260319      -92.966797      -29.377789
 H         -33.674553      -93.234695      -30.429897
 H         -35.061764      -91.120667      -27.522577
 H         -36.811825      -91.287437      -27.959585
 H         -33.295914      -91.030708      -30.579384
 H         -33.264610      -90.669228      -28.921692
 H         -35.491974      -89.937836      -29.677992
 H         -35.664597      -91.599571      -30.419701
