20
 generated by VMD
 C         -79.465584     -206.818939      -74.838142
 N         -80.054939     -207.667572      -74.247963
 H         -77.080925     -207.740891      -73.345863
 H         -78.964661     -205.966385      -75.182251
 C         -76.952141     -207.821991      -72.217468
 C         -75.674538     -207.423737      -71.475090
 C         -77.766136     -208.978119      -71.675179
 C         -75.688171     -207.613937      -69.934822
 C         -78.056778     -208.601456      -70.234940
 C         -76.815590     -208.559845      -69.399284
 H         -75.170174     -206.563019      -71.885048
 H         -74.969589     -208.227295      -71.822380
 H         -78.703079     -209.089798      -72.280136
 H         -77.125916     -209.844604      -71.867432
 H         -75.736107     -206.602890      -69.438171
 H         -74.648254     -207.883469      -69.595665
 H         -78.654915     -209.422424      -69.790825
 H         -78.666008     -207.676407      -70.058258
 H         -77.178886     -208.354599      -68.422989
 H         -76.400116     -209.579315      -69.250404
