20
 generated by VMD
 C         -59.842556     -157.027557      -56.717770
 N         -60.927395     -156.655289      -56.687672
 H         -59.642403     -157.263260      -53.285179
 H         -58.864727     -157.442459      -56.941238
 C         -59.055523     -157.827667      -52.640594
 C         -57.882450     -157.093796      -52.149185
 C         -59.101425     -159.391556      -52.484119
 C         -57.283176     -157.684387      -50.828896
 C         -58.530506     -159.862595      -51.170479
 C         -57.136288     -159.234421      -50.816578
 H         -58.040386     -156.030243      -51.785160
 H         -57.062302     -157.048264      -52.974861
 H         -60.107346     -159.839874      -52.545986
 H         -58.611206     -159.644196      -53.397491
 H         -57.951706     -157.275314      -49.972664
 H         -56.331936     -157.204987      -50.576786
 H         -58.533321     -160.934418      -50.835590
 H         -59.205273     -159.355713      -50.345657
 H         -57.029434     -159.444550      -49.734406
 H         -56.260700     -159.615616      -51.408669
