20
 generated by VMD
 C         -13.554539      -28.187477       -3.611087
 N         -14.016482      -27.339331       -4.148671
 H         -10.475021      -28.701498       -2.666591
 H         -10.207187      -27.609169       -3.961158
 C          -9.630297      -28.356302       -3.296788
 C          -9.056543      -29.369659       -4.265579
 C          -8.536154      -27.806847       -2.437394
 C          -8.059648      -28.753235       -5.185744
 C          -7.396560      -27.239225       -3.277856
 C          -6.890082      -28.236929       -4.313114
 H          -9.876575      -29.748211       -4.969198
 H          -8.591028      -30.152925       -3.665683
 H          -8.955297      -27.063013       -1.699485
 H          -8.114224      -28.585203       -1.789162
 H          -8.426892      -27.876635       -5.659396
 H          -7.751959      -29.563866       -5.868592
 H          -6.552969      -26.907173       -2.650781
 H          -7.852027      -26.370756       -3.800881
 H          -6.148954      -27.888758       -5.054485
 H          -6.466092      -29.099495       -3.823182
