20
 generated by VMD
 C         -38.304813     -110.852455      -36.268612
 N         -38.064316     -109.708321      -36.363037
 H         -40.220558     -113.761887      -35.540981
 H         -38.685234     -111.826195      -35.970795
 C         -41.050617     -113.146965      -35.762592
 C         -42.037628     -113.768822      -36.762375
 C         -41.550846     -112.160866      -34.754250
 C         -43.358601     -114.269676      -35.993065
 C         -42.887596     -112.565956      -34.199295
 C         -43.942867     -113.017868      -35.243126
 H         -41.566452     -114.573799      -37.350262
 H         -42.420090     -112.945801      -37.469269
 H         -40.695229     -112.065285      -34.126812
 H         -41.572693     -111.341743      -35.357784
 H         -43.256104     -115.274269      -35.303848
 H         -44.061607     -114.722580      -36.733013
 H         -43.339310     -111.769516      -33.698261
 H         -42.780529     -113.349396      -33.496948
 H         -44.886787     -113.323013      -34.713253
 H         -44.259148     -112.085342      -35.893944
