20
 generated by VMD
 C         -38.739746     -113.664200      -35.782227
 N         -37.791500     -114.349678      -35.832359
 H         -41.387295     -114.704231      -35.708645
 H         -39.577251     -112.988388      -35.642254
 C         -42.298409     -114.471893      -36.170658
 C         -42.403446     -114.556885      -37.607056
 C         -43.465542     -114.222450      -35.336727
 C         -43.638973     -115.353668      -38.107956
 C         -44.598980     -115.205635      -35.677113
 C         -44.787033     -115.114914      -37.221844
 H         -41.437828     -114.895027      -38.003242
 H         -42.465073     -113.495598      -37.950264
 H         -43.210930     -114.394402      -34.309994
 H         -43.864117     -113.215912      -35.479500
 H         -43.323048     -116.420845      -38.132637
 H         -43.747307     -115.101456      -39.181763
 H         -45.506325     -115.014557      -35.095455
 H         -44.385117     -116.278351      -35.490238
 H         -45.718994     -115.675667      -37.416939
 H         -45.193253     -113.976631      -37.376957
