20
 generated by VMD
 C         -18.319777      -50.241302       -9.463898
 N         -19.427727      -50.348999       -9.365322
 H         -16.332983      -47.055496      -10.127396
 H         -17.546591      -48.338768      -10.251172
 C         -16.832355      -47.730270      -10.816952
 C         -15.698544      -48.633865      -11.439310
 C         -17.440460      -46.922466      -11.959820
 C         -16.198931      -49.514210      -12.627227
 C         -18.009182      -47.873344      -13.032237
 C         -17.005730      -48.775307      -13.710253
 H         -15.416489      -49.406528      -10.728425
 H         -14.799198      -48.059586      -11.693797
 H         -18.221327      -46.231621      -11.528151
 H         -16.662235      -46.271141      -12.454149
 H         -16.815802      -50.300102      -12.207072
 H         -15.264893      -49.897480      -13.044098
 H         -18.559500      -47.249210      -13.777891
 H         -18.788120      -48.523075      -12.539381
 H         -17.541924      -49.429081      -14.342109
 H         -16.327986      -48.298363      -14.364902
