20
 generated by VMD
 C         -80.120384     -205.527542      -72.214180
 N         -80.002769     -206.675674      -72.195992
 H         -77.264397     -204.182556      -70.945633
 H         -80.462105     -204.486649      -72.049423
 C         -76.456139     -204.833893      -71.247513
 C         -75.157188     -203.991180      -71.297653
 C         -76.320412     -206.244583      -70.640373
 C         -74.658165     -203.904068      -69.871613
 C         -75.562721     -206.052505      -69.284416
 C         -74.253525     -205.230988      -69.243996
 H         -75.284836     -203.058289      -71.884705
 H         -74.379707     -204.596191      -71.855164
 H         -77.224472     -206.844421      -70.413597
 H         -75.660286     -206.831635      -71.306519
 H         -75.487999     -203.450119      -69.316597
 H         -73.865791     -203.196579      -70.064964
 H         -75.518044     -207.017380      -68.918114
 H         -76.186798     -205.557343      -68.505661
 H         -73.820839     -205.079803      -68.262207
 H         -73.515747     -205.820847      -69.855515
