20
 generated by VMD
 C          -0.990538      -10.519239        1.081076
 N          -1.710012       -9.698159        0.743387
 H          -3.409260      -12.430964        0.870235
 H          -4.319423      -12.019299        2.314266
 C          -4.065154      -12.841885        1.608449
 C          -3.205662      -13.966405        2.367857
 C          -5.282006      -13.473837        0.956314
 C          -4.036610      -14.824203        3.313516
 C          -6.154666      -14.199511        1.977649
 C          -5.340261      -15.307712        2.645715
 H          -2.384480      -13.457782        3.004858
 H          -2.746533      -14.604082        1.580476
 H          -5.800718      -12.642719        0.442097
 H          -4.904453      -14.046423        0.094548
 H          -4.458997      -14.323864        4.183493
 H          -3.564413      -15.785875        3.684053
 H          -6.997999      -14.651163        1.447090
 H          -6.530757      -13.486245        2.675954
 H          -5.912306      -15.992523        3.256741
 H          -4.952685      -15.881825        1.804773
