20
 generated by VMD
 C         -51.240097     -129.716171      -45.267929
 N         -51.647625     -130.152237      -46.223961
 H         -48.520157     -130.362534      -43.655056
 H         -50.967552     -129.374847      -44.243229
 C         -48.074860     -130.477158      -42.682922
 C         -48.099735     -131.777267      -41.935818
 C         -47.608170     -129.336502      -41.779148
 C         -46.857975     -132.066559      -41.148109
 C         -46.368858     -129.669662      -40.928646
 C         -46.444031     -130.975449      -40.205544
 H         -48.350445     -132.431671      -42.705105
 H         -49.050369     -131.733337      -41.240673
 H         -47.471134     -128.385437      -42.375557
 H         -48.412632     -129.087280      -41.142319
 H         -46.061737     -132.314590      -41.785351
 H         -46.921505     -132.920135      -40.458973
 H         -46.340256     -128.826920      -40.283993
 H         -45.504429     -129.550232      -41.707088
 H         -45.465534     -131.206818      -39.672668
 H         -47.165810     -131.026566      -39.365215
