20
 generated by VMD
 C         -79.767776     -207.070389      -73.623199
 N         -80.141228     -205.971252      -73.848526
 H         -78.088875     -205.237228      -70.642998
 H         -79.222122     -207.950363      -73.555267
 C         -77.107925     -205.283890      -70.142845
 C         -76.075012     -204.538391      -70.925285
 C         -76.838112     -206.698135      -69.645950
 C         -74.678909     -204.664551      -70.262840
 C         -75.405396     -206.863159      -69.103043
 C         -74.432648     -206.184998      -70.186584
 H         -76.357063     -203.531616      -71.026497
 H         -75.987297     -204.889572      -71.975021
 H         -77.583443     -206.941330      -68.903580
 H         -77.089371     -207.208603      -70.552315
 H         -74.579834     -204.320938      -69.209251
 H         -73.755333     -204.270309      -70.755081
 H         -75.064896     -207.922470      -69.007744
 H         -75.419746     -206.335419      -68.156738
 H         -73.399887     -206.301895      -69.908188
 H         -74.543816     -206.753586      -71.148537
