20
 generated by VMD
 C         -55.675575     -149.003647      -45.575619
 N         -55.152306     -149.585114      -44.730499
 H         -54.498253     -148.187195      -48.300236
 H         -56.345310     -148.503967      -46.304855
 C         -54.232342     -147.264847      -48.883553
 C         -53.125439     -147.244308      -49.963829
 C         -54.962856     -145.994110      -48.522530
 C         -53.439198     -146.356400      -51.087536
 C         -55.168297     -145.108414      -49.762070
 C         -53.956944     -145.005310      -50.588158
 H         -53.041588     -148.225800      -50.460640
 H         -52.253696     -147.033997      -49.479034
 H         -56.011395     -146.259567      -48.158993
 H         -54.511265     -145.387207      -47.720634
 H         -54.272659     -146.848160      -51.606102
 H         -52.632027     -146.288574      -51.800983
 H         -55.483860     -144.148941      -49.480129
 H         -55.991760     -145.513229      -50.430241
 H         -54.408447     -144.540924      -51.479748
 H         -53.072010     -144.455093      -50.113804
