20
 generated by VMD
 C         -52.381630     -146.365387      -44.147041
 N         -51.701492     -146.528854      -45.125664
 H         -53.990891     -145.627045      -46.900578
 H         -53.144741     -146.316483      -43.347652
 C         -53.979675     -145.122269      -47.827412
 C         -52.846432     -144.927948      -48.875980
 C         -54.787373     -143.847702      -47.545364
 C         -53.430542     -144.309540      -50.155895
 C         -55.376022     -143.308487      -48.852268
 C         -54.254372     -142.997818      -49.815212
 H         -52.262386     -145.800018      -49.164349
 H         -52.129093     -144.099319      -48.366932
 H         -55.605915     -144.026825      -46.870605
 H         -54.155884     -143.104218      -47.158646
 H         -54.153294     -145.153397      -50.456345
 H         -52.666237     -144.044418      -50.916389
 H         -55.812050     -142.316498      -48.709122
 H         -56.231037     -143.977814      -49.233662
 H         -54.607609     -142.630753      -50.853630
 H         -53.560329     -142.234924      -49.402161
