20
 generated by VMD
 C         -57.230000     -150.991608      -48.394215
 N         -58.318871     -151.244858      -48.536896
 H         -54.257408     -148.774002      -47.338867
 H         -56.253246     -150.645462      -48.283390
 C         -54.400620     -148.633102      -48.403316
 C         -53.675262     -149.522110      -49.353195
 C         -54.573551     -147.138779      -48.739532
 C         -54.346645     -149.458786      -50.741009
 C         -55.212883     -147.083679      -50.136993
 C         -54.441887     -148.074997      -51.249153
 H         -53.732449     -150.474930      -48.901798
 H         -52.594891     -149.378174      -49.423512
 H         -55.300331     -146.649948      -47.966927
 H         -53.598801     -146.629990      -48.637711
 H         -55.296299     -149.949020      -50.561275
 H         -53.833542     -150.051437      -51.488098
 H         -54.931370     -146.017609      -50.620140
 H         -56.274273     -147.190155      -50.035156
 H         -55.106316     -147.967102      -52.107246
 H         -53.533348     -147.593979      -51.368237
