20
 generated by VMD
 C         -40.842678     -103.938362      -37.123917
 N         -40.788265     -104.795540      -36.356419
 H         -39.856941     -105.921623      -33.955055
 H         -40.826511     -103.020271      -37.728226
 C         -39.281086     -106.448807      -33.272648
 C         -37.902683     -106.140923      -32.810505
 C         -39.683105     -107.972389      -33.342766
 C         -37.757576     -106.790909      -31.503119
 C         -39.630444     -108.561287      -32.002766
 C         -38.201015     -108.280060      -31.447760
 H         -37.662048     -105.082008      -32.811195
 H         -37.152374     -106.592682      -33.574230
 H         -40.628429     -108.019196      -33.781258
 H         -38.937061     -108.303589      -34.064938
 H         -38.244129     -106.379242      -30.583931
 H         -36.680206     -106.793251      -31.220718
 H         -39.779224     -109.644493      -32.164856
 H         -40.473076     -108.149254      -31.410036
 H         -38.067337     -108.657761      -30.416826
 H         -37.446777     -108.889748      -32.058094
