20
 generated by VMD
 C         -60.998547     -172.256180      -55.216934
 N         -60.203468     -173.065781      -54.966106
 H         -62.264145     -170.583527      -57.291069
 H         -61.580883     -171.368042      -55.510620
 C         -63.070850     -169.899673      -57.308727
 C         -62.666809     -168.441391      -57.509457
 C         -64.571007     -170.096130      -57.320244
 C         -63.367592     -167.885239      -58.818794
 C         -65.123795     -169.448380      -58.604015
 C         -64.853584     -167.957397      -58.732712
 H         -61.492073     -168.279617      -57.557243
 H         -63.034485     -167.864243      -56.732349
 H         -64.885559     -171.165863      -57.332191
 H         -65.119759     -169.480087      -56.608639
 H         -62.892208     -168.370911      -59.617119
 H         -63.154369     -166.843201      -58.960983
 H         -66.240776     -169.631775      -58.522606
 H         -64.721977     -170.083145      -59.508362
 H         -65.384148     -167.648972      -59.654083
 H         -65.340294     -167.551102      -57.883221
