20
 generated by VMD
 C         -49.099365     -127.128487      -38.964451
 N         -50.071579     -127.117599      -38.328945
 H         -46.926487     -124.870560      -39.575321
 H         -48.128845     -127.020317      -39.424236
 C         -46.110336     -124.667130      -40.182186
 C         -44.712692     -125.211769      -40.071552
 C         -46.209232     -123.164093      -40.564102
 C         -43.695335     -124.621880      -41.055241
 C         -45.185051     -122.698265      -41.579288
 C         -43.723511     -123.173035      -41.354053
 H         -44.679062     -126.284897      -40.344700
 H         -44.403816     -125.063637      -39.080242
 H         -47.180634     -122.961227      -40.998138
 H         -46.269489     -122.477325      -39.586525
 H         -43.859241     -125.135941      -41.968983
 H         -42.688324     -124.923141      -40.804867
 H         -45.337158     -121.516830      -41.650166
 H         -45.501228     -122.957489      -42.643242
 H         -43.137840     -122.824867      -42.259403
 H         -43.238121     -122.600700      -40.557732
