20
 generated by VMD
 C         -46.736591     -124.978340      -38.230770
 N         -47.334000     -124.625763      -37.298138
 H         -44.542450     -122.210556      -37.570930
 H         -46.190166     -125.476181      -38.987961
 C         -44.805805     -122.241333      -38.682178
 C         -43.494602     -122.571075      -39.522366
 C         -45.909473     -121.468140      -39.338467
 C         -43.802414     -123.062172      -40.983227
 C         -46.141869     -122.018593      -40.822933
 C         -44.904377     -122.077164      -41.650719
 H         -42.941689     -123.548492      -39.074131
 H         -42.770893     -121.764397      -39.384117
 H         -46.845692     -121.526772      -38.811180
 H         -45.625698     -120.351913      -39.426456
 H         -44.178707     -124.220390      -40.938755
 H         -42.784805     -122.933472      -41.349033
 H         -46.888065     -121.362900      -41.245369
 H         -46.594234     -122.999763      -40.791561
 H         -45.273502     -122.531097      -42.600094
 H         -44.503254     -121.116928      -41.916744
