20
 generated by VMD
 C         -19.981255      -60.683590      -16.984745
 N         -19.283173      -59.987366      -17.617538
 H         -23.778822      -60.457249      -16.784346
 H         -20.839308      -61.389420      -16.581686
 C         -23.363054      -61.471062      -16.601950
 C         -23.261461      -62.349438      -17.873137
 C         -23.297461      -62.037498      -15.235502
 C         -23.382349      -63.886272      -17.723804
 C         -23.116167      -63.491295      -15.315720
 C         -23.948206      -64.205353      -16.367451
 H         -22.276804      -62.195011      -18.360762
 H         -24.123348      -62.083637      -18.589138
 H         -22.350863      -61.590412      -14.756124
 H         -24.254808      -61.808743      -14.720741
 H         -22.385805      -64.418243      -17.784557
 H         -23.973433      -64.239952      -18.567469
 H         -23.162708      -63.999889      -14.371897
 H         -22.086880      -63.640320      -15.590739
 H         -23.902321      -65.273567      -16.180008
 H         -24.989384      -63.912697      -16.286032
