20
 generated by VMD
 C         -23.818993      -69.498962      -16.896532
 N         -24.179798      -69.910866      -15.849573
 H         -23.838150      -66.937767      -18.726498
 H         -23.449644      -69.048798      -17.808252
 C         -24.471273      -67.593605      -19.366447
 C         -23.877287      -68.416824      -20.520758
 C         -25.929766      -67.401443      -19.187746
 C         -24.562868      -69.703186      -20.804035
 C         -26.595013      -68.734970      -19.650717
 C         -26.047945      -69.415878      -20.939487
 H         -22.783051      -68.434937      -20.323257
 H         -23.988958      -67.791992      -21.460466
 H         -26.169924      -67.039032      -18.205860
 H         -26.314081      -66.662796      -19.790546
 H         -24.263287      -70.426941      -19.991297
 H         -24.064495      -70.002708      -21.715385
 H         -27.707193      -68.674294      -19.885920
 H         -26.656843      -69.616127      -18.941324
 H         -26.607317      -70.375175      -21.075445
 H         -26.238043      -68.713943      -21.781435
