20
 generated by VMD
 C         -41.516972     -102.324326      -34.391560
 N         -41.133591     -101.851067      -35.344105
 H         -39.630875     -104.079689      -32.330425
 H         -41.524158     -102.925453      -33.515114
 C         -38.516739     -104.272881      -32.060089
 C         -37.434685     -103.879570      -32.999603
 C         -38.211750     -105.157249      -30.970783
 C         -36.294556     -103.398567      -32.213440
 C         -36.844063     -105.028145      -30.239191
 C         -35.744305     -104.635658      -31.190210
 H         -37.854820     -103.012268      -33.508316
 H         -37.247288     -104.757721      -33.691887
 H         -39.049686     -105.091301      -30.290922
 H         -38.200947     -106.176132      -31.382778
 H         -36.350262     -102.628242      -31.490370
 H         -35.557537     -103.105919      -32.948967
 H         -36.488823     -105.906860      -29.610914
 H         -36.977486     -104.250168      -29.559299
 H         -34.876976     -104.154892      -30.630045
 H         -35.440941     -105.430603      -31.772032
