20
 generated by VMD
 C         -65.231239     -176.196564      -55.928905
 N         -65.257477     -177.300201      -55.523525
 H         -64.264435     -174.628342      -59.003204
 H         -65.195335     -175.159592      -56.262604
 C         -64.539200     -173.655579      -59.453609
 C         -65.231087     -172.697220      -58.535301
 C         -63.686893     -173.275436      -60.695465
 C         -64.624054     -171.235245      -58.549519
 C         -63.057205     -171.937195      -60.492081
 C         -64.144684     -170.867218      -59.990059
 H         -64.959579     -173.016525      -57.414955
 H         -66.260590     -172.579681      -58.613632
 H         -63.000027     -174.134308      -60.800022
 H         -64.486908     -173.345993      -61.549187
 H         -63.884354     -171.086868      -57.811592
 H         -65.388573     -170.533295      -58.243931
 H         -62.615223     -171.580688      -61.435215
 H         -62.312267     -172.097504      -59.666103
 H         -63.597599     -169.920746      -59.886196
 H         -64.971855     -170.723175      -60.768494
