20
 generated by VMD
 C         -40.466576     -100.222702      -30.287090
 N         -41.410320     -100.525169      -29.661198
 H         -37.377666     -101.169693      -30.651636
 H         -39.684128      -99.847923      -30.954035
 C         -36.407974     -100.605873      -30.792917
 C         -36.191719     -100.060600      -32.384987
 C         -35.368626     -100.304199      -29.744759
 C         -35.304256      -98.841743      -32.497723
 C         -34.384087      -99.185631      -30.018744
 C         -34.082283      -98.889771      -31.579657
 H         -37.230423      -99.813469      -32.676472
 H         -35.830936     -100.865860      -33.074837
 H         -35.863716      -99.942535      -28.790846
 H         -34.845463     -101.265038      -29.503283
 H         -35.760277      -97.870720      -32.344707
 H         -34.812279      -98.891525      -33.505524
 H         -33.401844      -99.429794      -29.480278
 H         -34.748859      -98.266685      -29.696323
 H         -33.576458      -97.959770      -31.734253
 H         -33.381527      -99.714638      -31.885204
