20
 generated by VMD
 C          -3.838610      -20.375696        3.259625
 N          -4.336006      -19.429548        2.941700
 H          -5.154428      -19.541258       -0.179077
 H          -6.122518      -21.001652       -0.636720
 C          -6.004329      -19.913832       -0.761159
 C          -5.678411      -19.578222       -2.204656
 C          -7.281559      -19.162130       -0.395373
 C          -6.796890      -19.950636       -3.153072
 C          -8.457148      -19.628290       -1.282150
 C          -8.188685      -19.562071       -2.783107
 H          -4.809080      -20.105268       -2.569589
 H          -5.339166      -18.509104       -2.353255
 H          -7.533893      -19.399740        0.719384
 H          -7.154747      -18.040609       -0.310435
 H          -6.757133      -20.979548       -3.346671
 H          -6.573428      -19.457024       -4.095835
 H          -9.373874      -19.097013       -1.053348
 H          -8.685174      -20.673616       -1.146607
 H          -8.984389      -20.052645       -3.357533
 H          -8.344867      -18.491169       -3.106056
