20
 generated by VMD
 C         -31.198198      -75.604973      -21.394812
 N         -32.292904      -75.427879      -21.550480
 H         -27.902395      -75.651390      -20.063171
 H         -30.155190      -75.753983      -21.790298
 C         -27.119703      -75.453217      -20.747906
 C         -26.654167      -76.573563      -21.566120
 C         -26.239471      -74.260147      -20.480970
 C         -25.750071      -76.083076      -22.835285
 C         -25.430250      -73.817032      -21.741524
 C         -24.715462      -74.971359      -22.481989
 H         -27.492233      -77.167511      -21.831659
 H         -26.028000      -77.351814      -21.054697
 H         -26.833139      -73.428429      -20.048250
 H         -25.492481      -74.350189      -19.742073
 H         -26.438477      -75.719864      -23.609632
 H         -25.307344      -76.970581      -23.285114
 H         -24.639463      -73.052620      -21.559174
 H         -26.138569      -73.410362      -22.492304
 H         -24.517765      -74.480804      -23.466682
 H         -23.802021      -75.427330      -21.939514
