20
 generated by VMD
 C         -37.987492     -109.832405      -36.368866
 N         -37.445469     -108.879189      -35.972511
 H         -40.378281     -112.707108      -36.865089
 H         -38.694954     -110.701591      -36.477058
 C         -41.282806     -112.683647      -36.247978
 C         -42.382412     -113.744965      -36.500698
 C         -41.491318     -111.634804      -35.247837
 C         -43.304089     -114.179245      -35.285835
 C         -42.392879     -112.083633      -34.007305
 C         -43.587921     -112.959808      -34.418190
 H         -41.843197     -114.548035      -36.957821
 H         -43.028530     -113.497360      -37.404926
 H         -40.621689     -111.132484      -34.730545
 H         -41.991364     -110.786163      -35.755676
 H         -42.802372     -114.942719      -34.606346
 H         -44.240768     -114.440933      -35.723671
 H         -42.844341     -111.164383      -33.533306
 H         -41.710880     -112.594116      -33.223522
 H         -44.054222     -113.350609      -33.512562
 H         -44.335571     -112.331352      -34.924389
