20
 generated by VMD
 C         -68.295738     -195.145691      -65.117821
 N         -68.812897     -195.978226      -64.465767
 H         -71.486839     -194.746170      -66.782936
 H         -67.728050     -194.554733      -65.753189
 C         -72.128357     -193.922638      -67.095757
 C         -71.997032     -192.503647      -66.668434
 C         -73.429497     -194.346542      -67.793190
 C         -73.200035     -191.786240      -66.066093
 C         -74.588081     -193.887833      -66.992302
 C         -74.566589     -192.406998      -66.525948
 H         -71.633347     -191.987549      -67.473541
 H         -71.063324     -192.353394      -66.015671
 H         -73.543617     -193.879272      -68.692368
 H         -73.364548     -195.345749      -68.122520
 H         -73.240410     -190.654037      -66.243507
 H         -73.009720     -191.861832      -64.985062
 H         -74.767761     -194.522614      -66.130379
 H         -75.471779     -193.995834      -67.709587
 H         -74.921783     -191.742035      -67.396973
 H         -75.371765     -192.171768      -65.692955
