20
 generated by VMD
 C         -31.354050      -78.031326      -26.396059
 N         -31.695358      -77.954285      -27.515623
 H         -29.475630      -79.253052      -24.152718
 H         -31.295134      -77.820007      -25.262623
 C         -29.069267      -79.979469      -23.358892
 C         -27.579046      -80.105415      -23.062674
 C         -29.936218      -81.100983      -22.898996
 C         -27.233341      -80.969826      -21.757799
 C         -29.501850      -81.823807      -21.588020
 C         -28.018917      -82.197571      -21.743721
 H         -27.024734      -79.087814      -22.926857
 H         -27.086075      -80.487144      -24.029903
 H         -30.929859      -80.755241      -22.727894
 H         -30.061815      -81.727631      -23.833744
 H         -27.451916      -80.361183      -20.873594
 H         -26.090912      -81.207695      -21.741856
 H         -29.996983      -82.834290      -21.407898
 H         -29.700939      -81.194450      -20.771202
 H         -27.758064      -82.915131      -20.963783
 H         -27.955299      -82.699425      -22.716137
