20
 generated by VMD
 C         -40.334549     -100.210449      -30.039488
 N         -41.294712     -100.523506      -30.640041
 H         -37.366375     -101.404633      -30.468096
 H         -39.326042      -99.889313      -29.583313
 C         -36.480984     -100.888641      -30.860939
 C         -36.407963     -100.515854      -32.416245
 C         -35.247711     -100.835831      -29.959860
 C         -35.613457      -99.208076      -32.401146
 C         -34.661888      -99.420319      -29.979002
 C         -34.320034      -99.117706      -31.514683
 H         -37.431133     -100.355408      -32.761070
 H         -35.960590     -101.342857      -33.007687
 H         -35.612061     -101.188171      -29.009718
 H         -34.516289     -101.638489      -30.309204
 H         -36.295547      -98.366173      -32.012291
 H         -35.512241      -99.028870      -33.446262
 H         -33.862923      -99.286179      -29.268650
 H         -35.455338      -98.650383      -29.599998
 H         -33.821888      -98.112526      -31.682774
 H         -33.579433      -99.717941      -32.019489
