20
 generated by VMD
 C         -79.794350     -205.398468      -71.209183
 N         -80.202339     -206.430054      -71.478600
 H         -77.306297     -203.079697      -70.531845
 H         -79.455673     -204.421814      -71.059692
 C         -76.262970     -203.291718      -70.339615
 C         -75.168098     -202.327667      -70.307213
 C         -75.930397     -204.761169      -70.120628
 C         -73.845673     -202.992859      -70.640198
 C         -74.683449     -204.977188      -69.155968
 C         -73.554970     -203.958862      -69.496841
 H         -75.182213     -201.941040      -69.316689
 H         -75.519272     -201.540924      -71.037056
 H         -76.814789     -205.132538      -69.602989
 H         -75.746422     -205.259186      -71.049446
 H         -72.981445     -202.451447      -70.901459
 H         -73.938339     -203.713638      -71.430321
 H         -74.313797     -206.036652      -69.314125
 H         -74.975761     -204.841736      -68.119293
 H         -73.311928     -203.482224      -68.552788
 H         -72.684059     -204.512833      -69.763351
