20
 generated by VMD
 C         -47.149765     -124.748665      -38.025997
 N         -47.821930     -125.631973      -38.422691
 H         -44.694489     -122.096359      -37.710354
 H         -46.312172     -124.226433      -37.668434
 C         -44.749752     -122.451691      -38.753639
 C         -43.609478     -122.922546      -39.545212
 C         -45.628288     -121.493240      -39.499321
 C         -44.106102     -123.659454      -40.856163
 C         -46.189713     -122.236351      -40.839882
 C         -44.922184     -122.676605      -41.636433
 H         -42.981621     -123.575539      -39.005314
 H         -43.023010     -121.977943      -39.789516
 H         -46.481339     -121.149292      -38.875774
 H         -45.070892     -120.625259      -39.725727
 H         -44.435307     -124.703079      -40.768078
 H         -43.155548     -124.009476      -41.368893
 H         -46.892384     -121.485939      -41.295727
 H         -46.940617     -123.182304      -40.595734
 H         -45.297195     -123.210739      -42.532772
 H         -44.409790     -121.767586      -42.012707
