20
 generated by VMD
 C         -20.945230      -52.309677      -11.309298
 N         -21.458637      -52.960999      -10.466755
 H         -19.368528      -49.924179      -13.643199
 H         -20.103596      -51.659798      -11.972999
 C         -18.883732      -50.688999      -13.112100
 C         -18.446531      -51.992107      -13.736960
 C         -17.958078      -50.027470      -12.133346
 C         -17.036161      -51.840618      -14.312376
 C         -16.446768      -50.145424      -12.510285
 C         -16.079317      -51.446842      -13.164161
 H         -19.094986      -52.293930      -14.531454
 H         -18.461998      -52.868568      -13.032208
 H         -18.297634      -48.956081      -12.058513
 H         -17.993614      -50.491894      -11.135772
 H         -16.910326      -51.016312      -15.048771
 H         -16.737879      -52.855824      -14.654191
 H         -15.875723      -50.114574      -11.572004
 H         -16.167246      -49.213730      -13.120447
 H         -15.028223      -51.411667      -13.429351
 H         -16.131498      -52.243141      -12.392859
