20
 generated by VMD
 C         -48.026051     -140.003998      -45.967831
 N         -46.880703     -139.745789      -45.720219
 H         -51.200859     -138.400970      -45.287682
 H         -49.032501     -140.414612      -46.242702
 C         -51.912510     -139.209167      -45.534996
 C         -52.062439     -139.404877      -47.037697
 C         -53.142918     -139.165970      -44.643448
 C         -53.129734     -140.501877      -47.252720
 C         -54.244392     -140.211639      -45.068932
 C         -54.506016     -140.294388      -46.658062
 H         -51.122269     -139.821625      -47.389881
 H         -52.442295     -138.519760      -47.568127
 H         -52.723488     -139.320450      -43.641903
 H         -53.724007     -138.293976      -44.754436
 H         -52.800297     -141.580383      -47.054161
 H         -53.349838     -140.468552      -48.382473
 H         -55.001335     -140.046524      -44.411285
 H         -53.825905     -141.190094      -44.807621
 H         -55.296829     -141.081696      -46.734028
 H         -54.952969     -139.385941      -47.046444
