20
 generated by VMD
 C         -70.811485     -181.529541      -64.236397
 N         -70.295250     -182.364471      -63.603245
 H         -68.583511     -181.167114      -60.972942
 H         -71.299248     -180.846771      -64.873085
 C         -67.619896     -180.775803      -60.738747
 C         -66.371124     -181.718048      -60.553371
 C         -67.256004     -179.409592      -60.453789
 C         -65.037712     -181.167389      -60.757267
 C         -65.930420     -178.921402      -60.883774
 C         -64.781479     -179.753006      -60.300644
 H         -66.622284     -182.578812      -61.227730
 H         -66.508316     -182.118149      -59.537289
 H         -67.935295     -178.682281      -60.883190
 H         -67.335876     -179.173355      -59.463943
 H         -64.988403     -181.026505      -61.806107
 H         -64.326942     -181.896835      -60.329330
 H         -65.774765     -177.877182      -60.550182
 H         -65.866135     -178.838242      -61.960712
 H         -63.780666     -179.304077      -60.793491
 H         -64.702454     -179.656403      -59.224072
