20
 generated by VMD
 C         -68.115631     -189.565155      -67.112770
 N         -67.075752     -189.106949      -67.178375
 H         -68.594208     -188.700348      -63.309368
 H         -69.188484     -189.871353      -67.055283
 C         -69.625473     -188.698746      -63.599079
 C         -70.455803     -189.934555      -63.708622
 C         -70.460175     -187.404343      -63.083351
 C         -71.896881     -189.754395      -64.264832
 C         -71.873833     -187.380829      -63.599743
 C         -72.616920     -188.677628      -63.578472
 H         -70.431747     -190.361877      -62.675415
 H         -69.983536     -190.676895      -64.322639
 H         -70.585693     -187.525497      -61.972290
 H         -69.972153     -186.522003      -63.385406
 H         -72.502945     -190.652054      -64.330811
 H         -71.846603     -189.450485      -65.343239
 H         -71.809555     -187.153763      -64.662689
 H         -72.237778     -186.507751      -63.180912
 H         -73.016144     -188.979111      -62.552044
 H         -73.561005     -188.608292      -64.159737
