20
 generated by VMD
 C         -38.976471     -111.488762      -36.536324
 N         -38.343796     -110.490143      -36.613052
 H         -40.143204     -114.087624      -35.058987
 H         -39.478630     -112.411522      -36.471527
 C         -41.182796     -113.794403      -35.237022
 C         -41.616837     -113.968140      -36.664871
 C         -41.893139     -112.867920      -34.259144
 C         -43.061401     -114.050835      -36.693954
 C         -43.409237     -112.842461      -34.442474
 C         -43.880573     -113.019341      -35.943970
 H         -41.150753     -114.808861      -37.125446
 H         -41.320362     -112.984520      -37.073425
 H         -41.555260     -112.985130      -33.209290
 H         -41.392044     -111.877876      -34.525131
 H         -43.285004     -115.141060      -36.506546
 H         -43.455215     -113.939445      -37.772964
 H         -43.892242     -112.068008      -33.890614
 H         -43.901527     -113.687447      -33.976421
 H         -44.985256     -113.163048      -35.809841
 H         -43.789986     -112.068863      -36.345432
