20
 generated by VMD
 C         -10.494272      -37.287636       -7.612675
 N         -10.585405      -36.293457       -8.087037
 H         -13.404572      -37.569706       -7.642535
 H         -14.461531      -38.403370       -6.475501
 C         -14.047968      -38.478905       -7.484296
 C         -13.275401      -39.768890       -7.617818
 C         -15.192677      -38.534157       -8.498848
 C         -14.125747      -40.973541       -7.355842
 C         -16.036926      -39.748192       -8.449450
 C         -15.273629      -41.031887       -8.304118
 H         -12.511599      -39.799244       -6.853978
 H         -12.852994      -39.810425       -8.590663
 H         -15.811087      -37.607250       -8.306378
 H         -14.716021      -38.477089       -9.459836
 H         -14.546635      -40.931023       -6.294316
 H         -13.433167      -41.800617       -7.500196
 H         -16.719322      -39.857841       -9.373373
 H         -16.712849      -39.707859       -7.635944
 H         -15.912036      -41.905216       -8.070531
 H         -14.925793      -41.233940       -9.294868
