20
 generated by VMD
 C         -12.771735      -28.448919       -5.829466
 N         -13.069796      -28.652147       -6.888765
 H         -12.101205      -31.273159       -4.973585
 H         -10.975702      -29.789545       -5.011324
 C         -11.054367      -30.895195       -4.732899
 C         -10.082028      -31.779705       -5.519547
 C         -10.801593      -31.139521       -3.251149
 C          -8.641141      -31.452404       -5.184117
 C          -9.430941      -30.606430       -2.949079
 C          -8.405205      -31.443977       -3.710613
 H         -10.378828      -31.647617       -6.506326
 H         -10.228713      -32.871056       -5.283807
 H         -11.479069      -30.508207       -2.687192
 H         -10.956792      -32.158886       -3.013208
 H          -8.381761      -30.481897       -5.577829
 H          -7.986100      -32.210617       -5.553515
 H          -9.152645      -30.580708       -1.923992
 H          -9.413198      -29.524477       -3.271453
 H          -7.350324      -31.030039       -3.549164
 H          -8.482307      -32.519768       -3.415087
