20
 generated by VMD
 C         -52.925041     -146.817291      -45.220673
 N         -52.338490     -147.286652      -44.300499
 H         -54.808311     -146.737640      -47.824425
 H         -53.460930     -146.496841      -46.149975
 C         -54.448345     -145.865936      -48.373581
 C         -53.154724     -145.812637      -49.125408
 C         -55.103832     -144.660294      -47.939861
 C         -53.402191     -144.766464      -50.282940
 C         -55.252224     -143.626907      -49.081150
 C         -54.012325     -143.382172      -49.812851
 H         -53.035057     -146.767441      -49.695370
 H         -52.320885     -145.590286      -48.507423
 H         -56.061676     -145.054901      -47.571789
 H         -54.559120     -144.253342      -47.206989
 H         -54.162857     -145.148682      -51.022861
 H         -52.309422     -144.536301      -50.612892
 H         -55.708614     -142.685715      -48.591698
 H         -55.985863     -144.032013      -49.689663
 H         -54.089172     -142.686584      -50.643040
 H         -53.262318     -142.928482      -49.224049
