20
 generated by VMD
 C         -68.960526     -193.413666      -66.619774
 N         -67.828865     -193.550323      -66.385094
 H         -70.089684     -190.185822      -65.426292
 H         -69.980896     -193.212494      -66.701797
 C         -71.031288     -190.702499      -65.457504
 C         -71.903473     -190.628128      -66.607040
 C         -71.481987     -191.088516      -64.093620
 C         -73.058571     -191.655258      -66.492874
 C         -72.987572     -190.983719      -64.011124
 C         -73.654449     -191.780197      -65.125656
 H         -71.317368     -190.932632      -67.554588
 H         -72.301483     -189.674835      -66.789970
 H         -71.155937     -192.160385      -63.899193
 H         -71.009804     -190.504730      -63.293365
 H         -72.693810     -192.696548      -66.829338
 H         -73.871178     -191.268555      -67.191422
 H         -73.332169     -190.001312      -64.316887
 H         -73.466789     -191.268906      -63.040558
 H         -73.660088     -192.842972      -64.941338
 H         -74.682373     -191.551407      -65.166740
