20
 generated by VMD
 C         -19.651545      -57.752758      -17.011925
 N         -19.229576      -58.310413      -17.951889
 H         -22.026859      -60.129585      -17.113989
 H         -19.844936      -57.173500      -16.077278
 C         -22.630428      -60.661392      -16.433229
 C         -23.885134      -61.409309      -16.722807
 C         -22.004150      -60.923679      -15.104893
 C         -23.730406      -62.815990      -16.305748
 C         -21.556047      -62.359108      -15.212924
 C         -22.897446      -63.133556      -15.036266
 H         -24.267859      -61.265232      -17.698397
 H         -24.695986      -60.989399      -16.184240
 H         -21.200314      -60.186436      -14.950204
 H         -22.748444      -60.903999      -14.304126
 H         -23.344755      -63.372101      -17.151388
 H         -24.694767      -63.342312      -16.253700
 H         -20.956217      -62.568840      -14.271929
 H         -21.148804      -62.640430      -16.206865
 H         -22.630882      -64.221420      -15.110164
 H         -23.485682      -62.963341      -14.164277
