20
 generated by VMD
 C         -67.014999     -189.813065      -67.026413
 N         -67.227310     -190.141464      -65.926964
 H         -70.526810     -190.631561      -66.365982
 H         -66.743553     -189.741898      -68.111526
 C         -71.090393     -190.380478      -65.461418
 C         -72.256264     -191.061768      -64.910858
 C         -70.411697     -189.331451      -64.677254
 C         -73.331116     -190.220856      -64.116173
 C         -71.399025     -188.404953      -63.909233
 C         -72.574959     -189.285278      -63.177837
 H         -71.964928     -191.833344      -64.129463
 H         -72.653763     -191.736176      -65.663605
 H         -69.762314     -189.891693      -63.943966
 H         -69.774384     -188.818756      -65.284973
 H         -74.016884     -190.953262      -63.584969
 H         -73.992401     -189.620071      -64.749443
 H         -71.842888     -187.782501      -64.642189
 H         -70.828163     -187.839966      -63.151096
 H         -72.126511     -189.893219      -62.339024
 H         -73.267563     -188.672989      -62.737984
