20
 generated by VMD
 C         -59.745277     -157.570251      -56.725903
 N         -59.170559     -158.589859      -56.703274
 H         -60.117184     -157.489471      -53.137680
 H         -60.240974     -156.622894      -56.897469
 C         -59.789764     -158.434189      -52.731163
 C         -58.367989     -158.262100      -52.272839
 C         -60.282806     -159.801224      -52.980480
 C         -57.853020     -159.246368      -51.314373
 C         -59.623417     -160.885406      -52.100918
 C         -58.138905     -160.692520      -51.849865
 H         -58.260437     -157.303452      -51.620239
 H         -57.709995     -158.270874      -53.158051
 H         -61.353943     -159.858658      -52.921932
 H         -60.090092     -160.041000      -54.021339
 H         -58.248058     -159.269577      -50.285950
 H         -56.741020     -159.050507      -51.195030
 H         -59.788960     -161.854813      -52.649353
 H         -60.206749     -161.042343      -51.203667
 H         -57.750130     -161.373550      -51.065907
 H         -57.510098     -160.875305      -52.818218
