20
 generated by VMD
 C         -31.020187      -78.458000      -25.947512
 N         -31.376762      -77.516945      -25.289780
 H         -29.460388      -77.386681      -23.122099
 H         -30.799292      -78.989525      -26.785995
 C         -28.827335      -78.212814      -22.668947
 C         -27.377235      -78.349091      -22.927362
 C         -29.557396      -79.374725      -22.014814
 C         -26.530001      -79.526863      -22.374752
 C         -28.699169      -80.404579      -21.299995
 C         -27.382761      -80.716148      -22.026352
 H         -26.901533      -77.398590      -22.767803
 H         -27.206627      -78.308846      -24.024803
 H         -30.226904      -78.902611      -21.367203
 H         -30.184816      -79.889984      -22.805159
 H         -26.243065      -79.356758      -21.338711
 H         -25.649794      -79.659973      -23.042391
 H         -29.307940      -81.300850      -21.112993
 H         -28.329855      -80.047173      -20.371811
 H         -26.782808      -81.423355      -21.346445
 H         -27.695484      -81.317162      -22.952881
