20
 generated by VMD
 C         -11.957467      -26.013733       -0.068103
 N         -12.929291      -26.220909       -0.592308
 H          -9.923561      -26.488749       -3.277724
 H          -9.312565      -25.687668       -4.695064
 C          -9.009895      -26.173615       -3.771558
 C          -8.071102      -27.296621       -4.115253
 C          -8.357965      -25.139936       -2.905496
 C          -6.761596      -26.678968       -4.716938
 C          -7.160256      -24.547829       -3.536924
 C          -6.132563      -25.634916       -3.787277
 H          -8.628881      -27.941477       -4.893567
 H          -7.714227      -27.819351       -3.229579
 H          -9.052222      -24.327606       -2.552595
 H          -8.042030      -25.724035       -2.070705
 H          -7.108203      -26.174576       -5.624835
 H          -6.048491      -27.464046       -4.911595
 H          -6.755897      -23.742214       -2.937525
 H          -7.450659      -24.093494       -4.507800
 H          -5.221724      -25.142370       -4.166077
 H          -5.892182      -26.033056       -2.807691
