20
 generated by VMD
 C         -22.671194      -55.526653      -16.743986
 N         -23.089996      -54.474113      -16.798840
 H         -19.571379      -55.540977      -14.626917
 H         -22.620001      -56.545906      -16.419582
 C         -19.660688      -56.581402      -14.600652
 C         -20.717299      -56.917995      -13.654194
 C         -18.791216      -57.659645      -15.263170
 C         -21.018927      -58.414165      -13.413053
 C         -19.087763      -59.082283      -14.814433
 C         -19.638662      -59.215076      -13.367109
 H         -21.621336      -56.396839      -14.030227
 H         -20.425922      -56.440006      -12.648332
 H         -18.940371      -57.604797      -16.408482
 H         -17.811571      -57.372509      -14.908287
 H         -21.551670      -58.899548      -14.256137
 H         -21.606487      -58.563984      -12.502532
 H         -18.167334      -59.664310      -14.951241
 H         -19.795477      -59.544796      -15.491604
 H         -19.877443      -60.208813      -13.036004
 H         -18.936213      -58.706451      -12.715971
