20
 generated by VMD
 C         -32.289402      -93.607002      -25.319166
 N         -33.073681      -94.434547      -25.549944
 H         -33.874035      -94.855103      -28.598429
 H         -31.650076      -92.688812      -25.202679
 C         -34.307358      -94.071739      -29.124596
 C         -35.659275      -93.597969      -28.525995
 C         -33.576469      -93.432152      -30.264345
 C         -35.419537      -92.111244      -28.283609
 C         -33.519154      -91.943817      -29.960653
 C         -34.905930      -91.374161      -29.468058
 H         -35.819229      -94.132446      -27.568460
 H         -36.568447      -93.755447      -29.144224
 H         -32.566078      -93.727089      -30.472012
 H         -34.127903      -93.619850      -31.206200
 H         -34.720032      -92.056824      -27.405792
 H         -36.328259      -91.616020      -27.955132
 H         -33.158810      -91.303909      -30.817755
 H         -32.777252      -91.823509      -29.167282
 H         -34.747650      -90.362053      -29.213320
 H         -35.641544      -91.561012      -30.198092
