20
 generated by VMD
 C         -50.724789     -129.580032      -45.789440
 N         -51.013699     -130.560944      -45.302200
 H         -48.346779     -130.847229      -44.048923
 H         -50.456261     -128.904739      -46.554184
 C         -48.133892     -131.160461      -43.012966
 C         -48.341728     -132.547394      -42.318714
 C         -47.946922     -129.871979      -42.266365
 C         -47.329079     -132.643845      -41.230976
 C         -46.929070     -130.173676      -41.185482
 C         -47.310909     -131.329880      -40.384598
 H         -48.150379     -133.415405      -42.959610
 H         -49.389694     -132.583893      -42.037609
 H         -47.533527     -129.061508      -42.844154
 H         -48.906860     -129.565186      -41.902760
 H         -46.302223     -132.729187      -41.663673
 H         -47.579189     -133.530197      -40.592003
 H         -46.958908     -129.378555      -40.439541
 H         -45.899090     -130.319855      -41.604908
 H         -46.527824     -131.641296      -39.626373
 H         -48.137260     -131.298950      -39.705616
