20
 generated by VMD
 C         -49.650192     -133.168839      -46.722103
 N         -48.691795     -132.608017      -47.251709
 H         -48.091656     -134.256927      -44.172234
 H         -50.677235     -133.449799      -46.398689
 C         -49.004143     -134.823685      -43.897606
 C         -49.389442     -136.211884      -44.228336
 C         -50.079300     -133.916946      -43.242355
 C         -50.118977     -136.863647      -43.112972
 C         -50.778713     -134.597168      -42.118000
 C         -51.161980     -136.043457      -42.398010
 H         -48.605431     -136.829117      -44.586105
 H         -50.143639     -136.133026      -45.025063
 H         -49.546646     -133.083466      -42.862164
 H         -50.819004     -133.542099      -44.010899
 H         -49.388409     -137.039368      -42.314072
 H         -50.589249     -137.774460      -43.351498
 H         -51.710407     -134.029663      -41.725578
 H         -50.033047     -134.500595      -41.275478
 H         -51.404415     -136.374649      -41.479218
 H         -52.054371     -135.887497      -43.052269
