20
 generated by VMD
 C         -79.461433     -205.416916      -70.914673
 N         -80.298363     -206.116638      -71.406921
 H         -77.394081     -203.187164      -69.919357
 H         -78.656708     -204.745560      -70.771416
 C         -76.339653     -203.278839      -70.192329
 C         -75.276909     -202.260574      -70.440948
 C         -75.746246     -204.637833      -70.054352
 C         -73.846855     -202.644913      -70.426277
 C         -74.602425     -204.679596      -69.114372
 C         -73.469940     -203.957184      -69.722931
 H         -75.512169     -201.443115      -69.674568
 H         -75.459961     -201.758743      -71.356621
 H         -76.606422     -205.233551      -69.626358
 H         -75.414528     -205.137909      -71.046478
 H         -73.225067     -201.855331      -69.949783
 H         -73.493317     -202.832840      -71.448845
 H         -74.380119     -205.665237      -68.696365
 H         -74.816017     -204.023727      -68.281448
 H         -72.692024     -203.712921      -68.941162
 H         -72.884026     -204.483566      -70.502617
