20
 generated by VMD
 C         -47.629318     -136.674500      -45.969116
 N         -47.050514     -136.293457      -46.852791
 H         -50.868134     -135.714294      -45.564545
 H         -48.146400     -137.048141      -45.130962
 C         -51.255741     -136.626587      -45.191063
 C         -51.771049     -137.657654      -46.150948
 C         -51.891933     -136.570175      -43.783596
 C         -52.078564     -138.994339      -45.461491
 C         -52.283348     -137.816803      -43.247009
 C         -52.890839     -138.830551      -44.235794
 H         -50.903793     -137.841797      -46.781174
 H         -52.672985     -137.222305      -46.727875
 H         -51.140270     -136.049667      -43.161003
 H         -52.796207     -136.024887      -43.956108
 H         -51.154999     -139.536652      -45.238285
 H         -52.484276     -139.721786      -46.256016
 H         -52.892597     -137.746826      -42.359138
 H         -51.422668     -138.379776      -42.850315
 H         -52.978844     -139.883911      -43.821972
 H         -53.836613     -138.529434      -44.749100
