20
 generated by VMD
 C         -44.464622     -122.119553      -35.975536
 N         -43.909657     -121.068283      -35.934471
 H         -45.194511     -122.669662      -39.628075
 H         -44.756420     -123.170532      -36.200466
 C         -44.892658     -121.629692      -39.403210
 C         -43.441681     -121.152985      -39.540028
 C         -45.950493     -120.664932      -39.139576
 C         -43.277798     -119.677299      -40.113770
 C         -45.721550     -119.317886      -39.885742
 C         -44.305054     -118.816315      -39.527893
 H         -42.895256     -121.849838      -40.134708
 H         -43.011639     -121.065628      -38.566299
 H         -46.817039     -121.258606      -39.495178
 H         -46.109119     -120.386482      -38.054153
 H         -43.488579     -119.865105      -41.112389
 H         -42.220535     -119.320442      -39.911503
 H         -46.548515     -118.499428      -39.600426
 H         -45.758579     -119.646477      -40.948277
 H         -44.228157     -117.801773      -40.079880
 H         -44.050503     -118.590469      -38.439526
