20
 generated by VMD
 C         -27.790525      -86.652969      -26.788591
 N         -28.142349      -85.635315      -26.440931
 H         -30.859417      -86.126144      -25.457630
 H         -27.487833      -87.647705      -27.256418
 C         -31.862926      -86.488991      -25.645584
 C         -32.756813      -86.894821      -24.403950
 C         -31.993361      -87.167664      -27.008699
 C         -34.198467      -87.381798      -24.789427
 C         -33.493225      -87.408340      -27.177284
 C         -34.036785      -88.196602      -26.065369
 H         -32.812302      -86.049812      -23.771130
 H         -32.138824      -87.561623      -23.754004
 H         -31.612297      -86.525658      -27.817461
 H         -31.398516      -88.130211      -27.029102
 H         -34.857956      -86.665215      -25.224636
 H         -34.803196      -88.008011      -24.115562
 H         -33.619411      -87.914780      -28.174070
 H         -33.976719      -86.491852      -27.249403
 H         -34.986473      -88.522171      -26.468391
 H         -33.467957      -89.113213      -25.796995
