20
 generated by VMD
 C         -48.000992     -136.400879      -46.053806
 N         -46.939930     -136.062988      -46.315155
 H         -50.965485     -135.561447      -45.835068
 H         -48.902050     -136.688904      -45.550529
 C         -51.531315     -136.327805      -45.327572
 C         -52.291149     -137.383728      -46.046661
 C         -51.774460     -136.117371      -43.871910
 C         -51.852688     -138.685852      -45.413925
 C         -51.398129     -137.538422      -43.201084
 C         -52.213150     -138.606354      -43.821716
 H         -52.096146     -137.434341      -47.067841
 H         -53.391823     -137.181808      -45.918320
 H         -51.083382     -135.319305      -43.489235
 H         -52.832970     -135.736023      -43.695484
 H         -50.779423     -138.926041      -45.539276
 H         -52.373741     -139.501572      -45.911140
 H         -51.507511     -137.597336      -42.180489
 H         -50.300896     -137.727524      -43.402092
 H         -52.037189     -139.656982      -43.428711
 H         -53.237350     -138.624863      -43.531578
