20
 generated by VMD
 C          -1.318891      -11.970862        1.494756
 N          -1.019609      -12.471685        0.578761
 H          -3.756853      -13.141810        0.921798
 H          -5.435688      -12.876800        0.688778
 C          -4.740807      -13.664721        0.993773
 C          -4.819350      -13.869011        2.486810
 C          -4.673443      -14.983028        0.223212
 C          -5.877642      -14.838186        2.960747
 C          -5.858959      -15.901354        0.588803
 C          -5.859893      -16.106714        2.087829
 H          -4.917247      -12.934158        2.992865
 H          -3.815597      -14.206515        2.847042
 H          -4.778530      -14.771987       -0.920420
 H          -3.696317      -15.598379        0.326674
 H          -6.861902      -14.362251        3.002148
 H          -5.723543      -15.093600        3.994859
 H          -5.786425      -16.806524        0.030555
 H          -6.738831      -15.351513        0.276750
 H          -6.659738      -16.858740        2.329466
 H          -4.877040      -16.620878        2.292535
