20
 generated by VMD
 C          -2.171535      -17.870186        2.236352
 N          -1.686321      -17.030525        2.788290
 H          -5.204021      -17.826330        0.985087
 H          -5.116176      -18.941599       -0.448797
 C          -5.785449      -18.227989        0.111636
 C          -6.107023      -17.108610       -0.938763
 C          -7.057767      -18.954163        0.519237
 C          -6.788817      -17.708637       -2.137098
 C          -7.926228      -19.464561       -0.665232
 C          -8.070653      -18.382069       -1.743137
 H          -5.257423      -16.542734       -1.189574
 H          -6.795336      -16.495169       -0.328273
 H          -6.794031      -19.841059        1.037129
 H          -7.678523      -18.231781        0.987297
 H          -6.170794      -18.438152       -2.658545
 H          -7.170930      -16.854084       -2.760120
 H          -8.914267      -19.713779       -0.236920
 H          -7.469662      -20.380110       -1.175937
 H          -8.616797      -18.806103       -2.622458
 H          -8.694214      -17.575171       -1.359234
