20
 generated by VMD
 C         -25.701851      -71.545494      -16.880564
 N         -26.466230      -72.331917      -16.517664
 H         -24.213032      -69.204445      -18.697924
 H         -24.805084      -70.943016      -17.271450
 C         -24.739693      -69.546356      -19.581854
 C         -24.000820      -70.536880      -20.366964
 C         -25.816130      -68.682732      -20.332584
 C         -25.075609      -71.333809      -21.228439
 C         -26.796480      -69.525925      -21.209005
 C         -26.055004      -70.529816      -22.086554
 H         -23.520435      -71.329430      -19.837805
 H         -23.358988      -70.174995      -21.186665
 H         -26.417444      -68.024734      -19.686609
 H         -25.255444      -68.022072      -21.002773
 H         -25.566193      -71.798386      -20.421497
 H         -24.463943      -72.114418      -21.689100
 H         -27.493162      -68.933090      -21.734488
 H         -27.557407      -70.100403      -20.712559
 H         -26.756083      -71.160728      -22.630529
 H         -25.383509      -70.035347      -22.837826
