20
 generated by VMD
 C         -21.460098      -65.694443      -17.127411
 N         -20.900061      -66.130386      -16.203136
 H         -24.408010      -63.622185      -18.284712
 H         -22.157869      -65.254967      -18.005058
 C         -24.644787      -64.748840      -18.375107
 C         -24.483482      -65.235924      -19.800451
 C         -25.218149      -65.565025      -17.254835
 C         -24.276056      -66.714157      -19.950678
 C         -25.101675      -67.108437      -17.453878
 C         -25.081348      -67.601685      -18.924742
 H         -23.585934      -64.835701      -20.218798
 H         -25.327204      -64.662483      -20.382965
 H         -24.624434      -65.389900      -16.263672
 H         -26.318691      -65.334427      -17.176376
 H         -23.222269      -66.963997      -19.904364
 H         -24.498417      -66.892265      -20.984030
 H         -25.994297      -67.466331      -16.916277
 H         -24.261097      -67.478035      -16.891977
 H         -24.672541      -68.586517      -19.027737
 H         -26.091782      -67.754410      -19.347794
