20
 generated by VMD
 C         -27.846828      -84.600388      -26.090311
 N         -28.377985      -84.749100      -27.097918
 H         -30.690952      -84.817238      -26.130762
 H         -27.484549      -84.355881      -25.136644
 C         -31.532774      -85.553230      -25.885920
 C         -31.875513      -85.777870      -24.373272
 C         -31.973669      -86.607368      -26.792147
 C         -33.193893      -86.527641      -24.056902
 C         -33.344017      -87.208679      -26.445837
 C         -33.432869      -87.617889      -24.992144
 H         -31.929626      -84.797546      -24.009497
 H         -31.048689      -86.325409      -23.986734
 H         -32.168697      -86.138611      -27.795731
 H         -31.180113      -87.319496      -26.910929
 H         -33.974213      -85.734665      -24.188513
 H         -33.083138      -87.022583      -23.010794
 H         -33.711262      -88.150612      -26.964872
 H         -34.063648      -86.429482      -26.613699
 H         -34.407982      -88.028595      -24.710428
 H         -32.725266      -88.534454      -24.973730
