20
 generated by VMD
 C          -6.823201      -23.311861        3.108254
 N          -6.814750      -22.649883        2.193222
 H          -7.711195      -22.704617       -0.560705
 H          -9.010924      -22.357313       -1.789753
 C          -7.910444      -22.197411       -1.540174
 C          -7.067772      -22.936319       -2.580839
 C          -7.535120      -20.713087       -1.472139
 C          -7.036217      -22.210707       -3.875306
 C          -7.536093      -20.061581       -2.857856
 C          -6.653963      -20.798943       -3.775126
 H          -7.534136      -23.938559       -2.818682
 H          -6.066587      -22.976521       -2.224790
 H          -8.282500      -20.269026       -0.769389
 H          -6.642999      -20.528881       -0.885554
 H          -8.031079      -22.422615       -4.373921
 H          -6.361829      -22.765213       -4.600698
 H          -7.341359      -18.982405       -2.713739
 H          -8.560110      -19.993048       -3.282964
 H          -6.620656      -20.289846       -4.764894
 H          -5.608748      -20.819887       -3.394608
