20
 generated by VMD
 C         -74.172348     -200.934830      -65.939926
 N         -73.037506     -200.899292      -66.227486
 H         -76.078308     -198.570969      -67.879471
 H         -75.203827     -200.951202      -65.674530
 C         -75.174149     -198.053360      -68.139511
 C         -74.890518     -196.680389      -67.864807
 C         -74.461273     -198.804138      -69.199890
 C         -73.571213     -196.077438      -68.383545
 C         -73.341446     -198.028534      -69.898834
 C         -72.549934     -197.218506      -68.882675
 H         -74.816673     -196.550217      -66.726868
 H         -75.572937     -195.935745      -68.163399
 H         -74.243912     -199.774536      -68.822395
 H         -75.129364     -198.966248      -69.967705
 H         -72.996788     -195.496048      -67.615883
 H         -73.768517     -195.366058      -69.178261
 H         -73.654648     -197.406464      -70.767387
 H         -72.780724     -198.855499      -70.371246
 H         -72.160378     -197.999466      -68.088615
 H         -71.656120     -196.725677      -69.302757
