20
 generated by VMD
 C         -60.744720     -155.015823      -51.740551
 N         -60.700710     -153.970627      -52.224949
 H         -57.651112     -153.798187      -52.927422
 H         -60.864361     -155.977829      -51.322556
 C         -56.888805     -153.790558      -52.156918
 C         -57.367161     -154.033859      -50.800026
 C         -55.574463     -153.192184      -52.536854
 C         -56.273052     -154.431793      -49.819973
 C         -54.614292     -153.568680      -51.450359
 C         -55.039928     -153.542847      -50.019665
 H         -58.198715     -154.717743      -50.605423
 H         -57.765129     -153.062347      -50.483475
 H         -55.293362     -153.628281      -53.472523
 H         -55.757652     -152.092987      -52.658169
 H         -56.101967     -155.539078      -50.002884
 H         -56.499275     -154.224426      -48.714367
 H         -53.782543     -152.910904      -51.530727
 H         -54.176331     -154.597977      -51.706955
 H         -54.251873     -153.925781      -49.317654
 H         -55.226589     -152.555481      -49.794006
