20
 generated by VMD
 C         -48.098854     -136.288864      -46.034801
 N         -47.015362     -136.088074      -46.210991
 H         -51.407059     -135.284546      -45.828217
 H         -49.136372     -136.496719      -46.132385
 C         -51.507458     -136.216934      -45.357124
 C         -52.303715     -137.363205      -46.028954
 C         -51.608833     -136.115372      -43.896240
 C         -51.932331     -138.698883      -45.348099
 C         -51.317635     -137.426559      -43.174698
 C         -52.028717     -138.606033      -43.852604
 H         -51.992573     -137.516434      -47.105225
 H         -53.360909     -137.197693      -45.986469
 H         -51.065510     -135.357819      -43.439426
 H         -52.660866     -135.939285      -43.658997
 H         -50.937023     -139.020676      -45.684113
 H         -52.539181     -139.403717      -45.827942
 H         -51.609959     -137.265732      -42.090805
 H         -50.261677     -137.548447      -43.149319
 H         -51.745522     -139.636948      -43.389565
 H         -53.219173     -138.617279      -43.558628
