20
 generated by VMD
 C         -58.564919     -161.737595      -56.381443
 N         -58.075161     -160.664963      -56.117290
 H         -59.658386     -165.052124      -55.146564
 H         -58.957695     -162.711533      -56.635746
 C         -60.286201     -164.189651      -54.833332
 C         -59.754578     -163.655502      -53.508987
 C         -61.742870     -164.388763      -55.089077
 C         -60.572571     -162.300583      -53.330154
 C         -62.543129     -163.126434      -54.825787
 C         -62.096329     -162.438126      -53.509438
 H         -58.638912     -163.616730      -53.500011
 H         -60.209763     -164.243317      -52.738159
 H         -61.893909     -164.772583      -56.131744
 H         -62.121117     -165.252396      -54.509281
 H         -60.281330     -161.630676      -54.099464
 H         -60.145218     -161.798721      -52.523731
 H         -63.639462     -163.472061      -54.666218
 H         -62.273689     -162.425079      -55.620049
 H         -62.524105     -161.407104      -53.439953
 H         -62.510201     -162.869507      -52.645706
