20
 generated by VMD
 C         -11.461709      -41.971512       -6.146611
 N         -10.968848      -41.303627       -6.907581
 H         -14.550400      -41.025814       -8.446096
 H         -15.552609      -40.488251       -9.754132
 C         -15.269921      -41.303101       -9.191616
 C         -16.564400      -41.931423       -8.677951
 C         -14.591428      -42.310555      -10.188191
 C         -17.505371      -42.467670       -9.778925
 C         -15.510940      -42.987423      -11.199684
 C         -16.780630      -43.565224      -10.563248
 H         -17.120497      -41.245716       -8.053652
 H         -16.331427      -42.745804       -8.044384
 H         -13.768389      -41.759853      -10.745916
 H         -14.166090      -43.041161       -9.521433
 H         -17.658823      -41.550407      -10.409393
 H         -18.423342      -42.933640       -9.374438
 H         -14.927305      -43.722153      -11.671695
 H         -15.821382      -42.231632      -12.022304
 H         -17.427649      -43.970085      -11.370106
 H         -16.591223      -44.428432       -9.890521
