20
 generated by VMD
 C          -1.206780      -13.053117        1.036763
 N          -0.543497      -12.937390        0.169931
 H          -4.305490      -12.979878        1.662069
 H          -5.766090      -13.375103        0.633024
 C          -5.035433      -13.761115        1.386650
 C          -5.858130      -14.214823        2.574636
 C          -4.339953      -14.972799        0.614790
 C          -6.768922      -15.374042        2.314237
 C          -5.382880      -16.089710        0.417033
 C          -6.093163      -16.568293        1.721558
 H          -6.431020      -13.288345        2.839944
 H          -5.260378      -14.288058        3.480198
 H          -3.870613      -14.552992       -0.313345
 H          -3.480189      -15.286695        1.322794
 H          -7.540616      -15.012883        1.667852
 H          -7.310962      -15.566455        3.239699
 H          -4.821998      -16.931974        0.000981
 H          -6.111700      -15.837617       -0.341788
 H          -6.804088      -17.327183        1.435626
 H          -5.346848      -17.042402        2.337239
