20
 generated by VMD
 C         -29.431042      -74.384781      -20.158428
 N         -30.491777      -74.803711      -20.267160
 H         -25.970583      -73.827545      -18.833145
 H         -28.277374      -74.209953      -19.963556
 C         -25.958452      -73.738441      -19.931337
 C         -25.608715      -75.003471      -20.749434
 C         -25.661963      -72.318832      -20.451368
 C         -26.126459      -74.809540      -22.263453
 C         -26.068665      -72.248604      -21.876665
 C         -25.612318      -73.423447      -22.767042
 H         -26.109549      -75.879105      -20.362707
 H         -24.622391      -75.384422      -20.711159
 H         -26.165497      -71.651001      -19.742481
 H         -24.651289      -72.078499      -20.123207
 H         -27.182871      -74.918816      -22.383591
 H         -25.687819      -75.662773      -22.797789
 H         -25.576324      -71.268990      -22.236238
 H         -27.137342      -72.023308      -21.870159
 H         -25.882608      -73.219200      -23.827969
 H         -24.561350      -73.293961      -22.865946
