20
 generated by VMD
 C         -12.743721      -30.098383       -8.356018
 N         -13.713449      -30.648649       -8.283685
 H         -10.987988      -30.675510       -5.266301
 H         -10.793256      -31.170244       -3.658104
 C         -10.806624      -31.632725       -4.646439
 C          -9.437161      -32.238289       -4.941072
 C         -11.933077      -32.664639       -4.779779
 C          -9.220579      -33.596794       -4.307122
 C         -11.713534      -34.059834       -4.145954
 C         -10.326451      -34.609306       -4.586253
 H          -8.665081      -31.582367       -4.562942
 H          -9.250257      -32.340630       -6.046574
 H         -12.786603      -32.166203       -4.311887
 H         -12.245459      -32.756477       -5.832514
 H          -9.046128      -33.478420       -3.242105
 H          -8.299007      -34.003780       -4.695288
 H         -12.562273      -34.739143       -4.460036
 H         -11.749508      -33.927994       -3.102913
 H          -9.980633      -35.580940       -4.080260
 H         -10.302457      -34.887398       -5.645583
