20
 generated by VMD
 C         -10.836738      -40.378838       -7.174154
 N         -11.499827      -40.303329       -6.288011
 H         -13.746583      -40.691910       -8.706388
 H         -15.173507      -39.926746       -9.466029
 C         -14.704550      -40.919205       -9.205533
 C         -15.516151      -41.670822       -8.159325
 C         -14.518260      -41.763725      -10.433715
 C         -16.926401      -42.078308       -8.673732
 C         -15.884048      -42.236202      -10.983242
 C         -16.669931      -42.922543       -9.891712
 H         -15.673007      -41.128185       -7.265172
 H         -14.969174      -42.563400       -7.929162
 H         -14.005608      -41.134159      -11.100585
 H         -13.968275      -42.682655      -10.135363
 H         -17.463633      -41.162209       -8.953773
 H         -17.375462      -42.704098       -7.873241
 H         -15.709693      -42.812763      -11.970369
 H         -16.352177      -41.360149      -11.297858
 H         -17.643511      -43.286385      -10.251751
 H         -16.174414      -43.880192       -9.559314
