20
 generated by VMD
 C         -56.824848     -150.477676      -47.889542
 N         -57.784351     -150.643356      -48.439987
 H         -54.012169     -148.805710      -47.218388
 H         -55.890438     -150.188156      -47.478912
 C         -54.124481     -148.449844      -48.308929
 C         -53.529758     -149.239594      -49.428017
 C         -54.701092     -147.167313      -48.684002
 C         -54.207478     -149.154144      -50.861683
 C         -55.534283     -147.098358      -49.935692
 C         -54.627468     -147.674042      -51.120594
 H         -53.560081     -150.363754      -49.089516
 H         -52.536198     -148.927765      -49.671558
 H         -55.276279     -146.821564      -47.820782
 H         -53.898800     -146.520630      -48.834015
 H         -55.126492     -149.806000      -50.939186
 H         -53.511055     -149.446579      -51.639225
 H         -55.597813     -146.026901      -50.288544
 H         -56.501194     -147.593811      -49.866039
 H         -55.166107     -147.731155      -52.058849
 H         -53.718292     -147.138000      -51.291096
