20
 generated by VMD
 C         -68.303253     -194.183563      -66.154251
 N         -67.808235     -194.474548      -65.098831
 H         -70.579338     -191.411575      -67.061050
 H         -68.818146     -193.860748      -67.032585
 C         -71.572853     -191.513000      -66.647072
 C         -72.364197     -190.305435      -66.424835
 C         -71.694237     -192.581772      -65.571274
 C         -73.848076     -190.637527      -66.293259
 C         -72.892265     -192.415222      -64.712173
 C         -74.052063     -191.967041      -65.536606
 H         -72.229866     -189.671173      -67.300240
 H         -71.872223     -189.791656      -65.486557
 H         -71.715347     -193.555130      -66.106194
 H         -70.753906     -192.644409      -64.916885
 H         -74.614563     -190.607590      -67.088730
 H         -74.267471     -189.896378      -65.553574
 H         -72.809731     -191.623703      -63.888786
 H         -73.074829     -193.325470      -64.115982
 H         -74.306572     -192.748138      -66.325493
 H         -74.895149     -191.891174      -64.932823
