20
 generated by VMD
 C         -12.180094      -27.756508       -1.492575
 N         -11.827326      -26.767298       -1.853360
 H         -10.434785      -25.971661       -4.540528
 H          -8.910885      -25.757862       -5.439576
 C          -9.329704      -26.120218       -4.490729
 C          -9.002066      -27.560522       -4.276186
 C          -8.676474      -25.201044       -3.452745
 C          -7.557574      -27.862827       -4.147750
 C          -7.165200      -25.599060       -3.229563
 C          -6.967403      -27.078163       -3.022826
 H          -9.528899      -28.040121       -5.050126
 H          -9.493861      -27.932203       -3.347626
 H          -8.744548      -24.124634       -3.624082
 H          -9.190521      -25.470560       -2.538567
 H          -6.984581      -27.521471       -5.051395
 H          -7.248102      -28.910542       -4.118474
 H          -6.582650      -24.979509       -2.472821
 H          -6.671824      -25.285303       -4.183343
 H          -5.945393      -27.385416       -2.837483
 H          -7.465012      -27.375195       -2.072060
