20
 generated by VMD
 C         -58.592991     -161.341583      -56.378838
 N         -58.424366     -160.248459      -56.488899
 H         -59.376995     -164.971649      -54.970787
 H         -58.710403     -162.406265      -56.269657
 C         -60.073338     -164.136826      -54.715393
 C         -59.781864     -163.603333      -53.276886
 C         -61.555283     -164.153992      -55.022942
 C         -60.299473     -162.056320      -53.184181
 C         -62.316578     -162.868683      -54.543411
 C         -61.849026     -162.112686      -53.266098
 H         -58.747162     -163.561996      -53.061935
 H         -60.318188     -164.233887      -52.644321
 H         -61.663429     -164.247269      -56.173820
 H         -61.941223     -164.966202      -54.467499
 H         -59.705173     -161.517838      -53.889618
 H         -59.921150     -161.643784      -52.142075
 H         -63.488796     -163.044922      -54.536716
 H         -62.338600     -162.099426      -55.488529
 H         -62.345100     -161.119751      -53.196335
 H         -62.209564     -162.744400      -52.406502
