20
 generated by VMD
 C         -60.937286     -154.709427      -51.289387
 N         -61.010246     -154.105286      -52.276817
 H         -57.501614     -153.662430      -52.985901
 H         -60.972122     -155.318802      -50.377258
 C         -56.710167     -153.742050      -52.229656
 C         -57.190804     -153.980545      -50.813118
 C         -55.485909     -152.857498      -52.360260
 C         -56.113010     -154.274231      -49.842884
 C         -54.389339     -153.264709      -51.447224
 C         -54.896461     -153.316498      -50.013287
 H         -57.930824     -154.721878      -50.813034
 H         -57.733418     -153.043594      -50.643387
 H         -55.036739     -152.952698      -53.396103
 H         -55.702095     -151.768494      -52.291943
 H         -55.758366     -155.353638      -49.962570
 H         -56.408947     -154.249435      -48.675579
 H         -53.563133     -152.591476      -51.513790
 H         -53.987652     -154.317001      -51.684097
 H         -54.067139     -153.667068      -49.356899
 H         -55.001316     -152.330246      -49.526814
