20
 generated by VMD
 C         -57.861385     -164.431839      -56.665707
 N         -57.264076     -163.607559      -57.162647
 H         -60.539276     -164.018295      -53.776821
 H         -58.529140     -165.147522      -56.216778
 C         -60.865921     -164.772736      -54.443066
 C         -61.886406     -165.813370      -53.847980
 C         -61.270687     -164.428085      -55.888767
 C         -63.308640     -165.220016      -53.737270
 C         -62.764858     -163.917236      -56.035557
 C         -63.694870     -164.773239      -55.154453
 H         -61.559353     -166.076447      -52.889671
 H         -61.895420     -166.684204      -54.542282
 H         -60.705616     -163.510696      -56.263733
 H         -61.115742     -165.135010      -56.639309
 H         -63.305855     -164.494095      -52.949837
 H         -64.018608     -165.890884      -53.274876
 H         -63.020771     -164.130539      -57.185043
 H         -62.687271     -162.917847      -55.771385
 H         -64.745064     -164.295151      -55.200344
 H         -63.882622     -165.797729      -55.653324
