20
 generated by VMD
 C         -67.474548     -180.000626      -58.293205
 N         -68.509140     -180.124802      -58.848274
 H         -67.119736     -176.346313      -59.748325
 H         -66.541489     -179.817886      -57.811169
 C         -66.232788     -176.075516      -60.107559
 C         -66.024376     -175.237000      -61.318893
 C         -65.070908     -176.675476      -59.403362
 C         -64.813988     -174.278214      -61.147423
 C         -63.968178     -175.590469      -59.252125
 C         -63.568508     -174.959717      -60.588188
 H         -66.814018     -174.476166      -61.291950
 H         -65.949364     -175.789154      -62.209385
 H         -65.601494     -177.137283      -58.507530
 H         -64.848434     -177.430908      -60.110039
 H         -65.125130     -173.486618      -60.427280
 H         -64.633911     -173.811157      -62.209324
 H         -63.086063     -176.022522      -58.844933
 H         -64.257523     -174.770782      -58.542702
 H         -62.704365     -174.290024      -60.558617
 H         -63.409203     -175.687256      -61.275177
