20
 generated by VMD
 C         -59.634300     -157.667145      -56.704216
 N         -59.088421     -158.630615      -56.819443
 H         -60.396435     -157.656708      -52.966991
 H         -60.146820     -156.748337      -56.783001
 C         -59.759602     -158.487976      -52.684296
 C         -58.380268     -158.289108      -52.310810
 C         -60.406586     -159.899078      -52.959774
 C         -57.981316     -159.352692      -51.372040
 C         -59.731155     -161.004730      -52.121288
 C         -58.147503     -160.797394      -51.966434
 H         -58.362381     -157.236328      -51.847317
 H         -57.684841     -158.121063      -53.171661
 H         -61.445274     -159.930603      -52.597572
 H         -60.312881     -160.127716      -53.961658
 H         -58.593338     -159.272156      -50.548832
 H         -56.895203     -159.051712      -51.101650
 H         -59.978580     -161.976746      -52.547470
 H         -60.048859     -161.020599      -51.085697
 H         -57.885452     -161.458115      -51.190556
 H         -57.693012     -160.966309      -52.986103
