20
 generated by VMD
 C         -28.393858      -82.423721      -26.525681
 N         -27.561478      -82.941551      -27.140219
 H         -31.056694      -84.263443      -26.577929
 H         -29.206945      -81.901306      -25.893143
 C         -31.446613      -84.746384      -25.749777
 C         -30.923086      -84.524742      -24.404198
 C         -32.105373      -85.960587      -26.148436
 C         -31.946135      -85.013992      -23.357216
 C         -33.008224      -86.551491      -25.120838
 C         -32.469765      -86.568092      -23.628368
 H         -30.673510      -83.484726      -24.222452
 H         -30.061733      -85.139732      -24.337120
 H         -32.594959      -85.992256      -27.103203
 H         -31.242649      -86.623169      -26.419565
 H         -32.870262      -84.348259      -23.412619
 H         -31.496052      -85.019783      -22.409096
 H         -33.159805      -87.584145      -25.328939
 H         -34.074802      -86.081970      -25.198536
 H         -33.310635      -86.668228      -22.853268
 H         -31.659931      -87.216148      -23.207556
