20
 generated by VMD
 C         -21.348690      -65.366104      -17.182383
 N         -20.727091      -65.818916      -16.265957
 H         -24.793732      -63.597672      -18.171373
 H         -22.114202      -65.323257      -17.917326
 C         -24.688360      -64.664635      -18.241352
 C         -24.449940      -65.088249      -19.704201
 C         -25.059568      -65.496780      -17.088667
 C         -24.283503      -66.599701      -19.908955
 C         -24.920391      -67.028221      -17.324091
 C         -25.167463      -67.398003      -18.914017
 H         -23.626190      -64.716072      -20.186682
 H         -25.387476      -64.697098      -20.200665
 H         -24.549591      -65.029716      -16.088366
 H         -26.163357      -65.258293      -16.938517
 H         -23.306431      -66.943466      -19.628872
 H         -24.511192      -66.920425      -20.931353
 H         -25.503647      -67.608452      -16.625391
 H         -23.903141      -67.352768      -17.211855
 H         -24.926250      -68.418304      -19.062538
 H         -26.232630      -67.239174      -19.119921
