20
 generated by VMD
 C         -68.543991     -184.979126      -66.004929
 N         -69.558838     -185.553253      -66.028122
 H         -69.856697     -182.835754      -63.401524
 H         -67.564301     -184.452209      -66.016670
 C         -69.321815     -183.566589      -62.870426
 C         -70.026596     -184.897079      -62.643791
 C         -67.843521     -183.639999      -62.517044
 C         -69.177658     -185.938354      -62.007980
 C         -67.478851     -184.165176      -61.097160
 C         -68.388565     -185.382874      -60.799435
 H         -70.328850     -185.308228      -63.625748
 H         -70.957405     -184.848022      -62.152462
 H         -67.346054     -184.273285      -63.357998
 H         -67.351898     -182.664078      -62.700260
 H         -68.332802     -186.207321      -62.665195
 H         -69.781944     -186.829315      -61.739773
 H         -67.581886     -183.363449      -60.340893
 H         -66.419777     -184.601044      -61.061756
 H         -67.768845     -186.250076      -60.552902
 H         -69.049858     -185.122040      -59.766869
