20
 generated by VMD
 C         -75.259468     -201.384888      -66.314537
 N         -75.683327     -202.239212      -65.678566
 H         -76.220215     -199.483261      -69.473648
 H         -74.715309     -200.608185      -66.764038
 C         -75.186897     -199.117157      -69.220329
 C         -74.938789     -198.129852      -68.127876
 C         -74.064781     -199.717667      -70.087761
 C         -73.386864     -198.028748      -68.057228
 C         -73.056381     -198.680847      -70.565605
 C         -72.866318     -197.575027      -69.560966
 H         -75.286194     -198.573639      -67.087105
 H         -75.355118     -197.148254      -68.287010
 H         -73.558578     -200.506134      -69.537369
 H         -74.605797     -200.165543      -70.851738
 H         -72.971100     -199.026733      -67.845116
 H         -73.028862     -197.292633      -67.302208
 H         -73.406929     -198.270706      -71.560448
 H         -71.987144     -199.047272      -70.899033
 H         -71.770607     -197.317322      -69.712021
 H         -73.492767     -196.796188      -69.867462
