20
 generated by VMD
 C         -46.728817     -124.684830      -37.186390
 N         -46.925285     -124.833710      -36.070396
 H         -44.465115     -121.797684      -37.756645
 H         -46.405842     -124.287567      -38.142506
 C         -44.609394     -121.904610      -38.891380
 C         -43.380180     -122.102859      -39.685020
 C         -45.914574     -121.300262      -39.510960
 C         -43.627537     -122.237801      -41.214787
 C         -46.002525     -121.563629      -40.962955
 C         -44.664330     -121.307732      -41.701862
 H         -42.923771     -122.981995      -39.237450
 H         -42.708309     -121.141037      -39.698845
 H         -46.843193     -121.721840      -38.964359
 H         -45.979221     -120.193306      -39.363674
 H         -44.031010     -123.224075      -41.306065
 H         -42.766083     -122.186302      -41.866123
 H         -46.656105     -120.795021      -41.417477
 H         -46.455452     -122.463501      -41.189938
 H         -44.799240     -121.376320      -42.801975
 H         -44.387142     -120.208504      -41.609570
