20
 generated by VMD
 C         -38.928528     -111.472534      -36.530396
 N         -38.333549     -110.491409      -36.678120
 H         -40.392342     -114.537712      -34.738884
 H         -39.380211     -112.422737      -36.399220
 C         -41.199665     -113.984543      -35.110710
 C         -41.646824     -113.947922      -36.582935
 C         -41.976021     -112.893593      -34.364742
 C         -43.175449     -114.102615      -36.756676
 C         -43.441624     -113.029884      -34.507477
 C         -43.789978     -112.944733      -36.001396
 H         -41.086380     -114.787979      -36.971783
 H         -41.306232     -113.022469      -37.129826
 H         -41.703777     -112.976738      -33.330734
 H         -41.401512     -111.995697      -34.566788
 H         -43.518673     -115.030350      -36.397663
 H         -43.518616     -114.042648      -37.814556
 H         -43.835022     -112.182907      -33.926357
 H         -44.011303     -113.763527      -33.955673
 H         -44.972752     -112.838318      -36.020977
 H         -43.398853     -111.933868      -36.368835
