20
 generated by VMD
 C         -13.315706      -30.950274       -8.284708
 N         -12.948155      -30.058472       -8.820757
 H         -11.399181      -32.140224       -6.419011
 H         -11.716460      -32.166126       -4.699832
 C         -11.379484      -32.776428       -5.575125
 C          -9.866198      -33.079884       -5.239725
 C         -12.205693      -34.068813       -5.707298
 C          -9.672133      -33.947792       -3.966830
 C         -11.996634      -34.909687       -4.496238
 C         -10.608735      -35.217842       -4.004591
 H          -9.290631      -32.175293       -5.162689
 H          -9.490226      -33.678875       -6.123836
 H         -13.225647      -33.775074       -5.860746
 H         -11.868284      -34.590122       -6.592475
 H         -10.023003      -33.439678       -3.043230
 H          -8.618498      -34.235497       -3.877371
 H         -12.566879      -35.802567       -4.634098
 H         -12.391381      -34.375080       -3.613513
 H         -10.707893      -35.676926       -3.004518
 H         -10.105734      -36.008141       -4.590423
