20
 generated by VMD
 C         -38.662399     -113.504890      -35.965740
 N         -37.657253     -114.041374      -35.929497
 H         -41.699760     -115.451866      -35.710133
 H         -39.752327     -113.277420      -35.832031
 C         -42.213486     -114.564491      -35.988457
 C         -42.378799     -114.350327      -37.456169
 C         -43.459644     -114.274460      -35.161922
 C         -43.481380     -115.355751      -37.947319
 C         -44.678703     -114.905762      -35.721027
 C         -44.782303     -114.991531      -37.234943
 H         -41.537262     -114.433334      -38.174931
 H         -42.947407     -113.394028      -37.708462
 H         -43.229828     -114.550659      -34.076672
 H         -43.450489     -113.143860      -35.054447
 H         -43.104156     -116.381073      -37.697208
 H         -43.684025     -115.232208      -39.009434
 H         -45.624454     -114.402443      -35.293869
 H         -44.830025     -115.961884      -35.283546
 H         -45.579399     -115.704384      -37.449512
 H         -44.921589     -113.990646      -37.648922
