20
 generated by VMD
 C         -58.373936     -165.440094      -56.199409
 N         -57.402973     -165.772781      -56.742603
 H         -60.614468     -164.804779      -53.911648
 H         -59.308777     -165.231689      -55.594032
 C         -61.165840     -164.989624      -54.847088
 C         -61.755211     -166.417816      -54.930828
 C         -61.903393     -163.997147      -55.634602
 C         -63.342941     -166.519821      -54.998341
 C         -63.429985     -164.183914      -55.805820
 C         -63.813660     -165.602997      -56.009140
 H         -61.534519     -166.990814      -53.958870
 H         -61.412106     -166.905899      -55.891121
 H         -61.823391     -162.918610      -55.320328
 H         -61.526241     -163.949448      -56.676228
 H         -63.724716     -166.336060      -53.979580
 H         -63.434162     -167.614517      -55.156555
 H         -63.862068     -163.681076      -56.718040
 H         -63.897457     -163.955276      -54.894535
 H         -64.908997     -165.832687      -56.166832
 H         -63.365135     -165.899002      -57.043339
