20
 generated by VMD
 C         -30.126936      -92.721527      -25.435839
 N         -31.044975      -93.305649      -25.797371
 H         -33.123802      -91.179344      -26.399105
 H         -29.185785      -92.129845      -25.209055
 C         -33.594093      -91.195641      -27.392353
 C         -34.755131      -92.116356      -27.393738
 C         -33.151989      -90.414650      -28.507402
 C         -35.902134      -91.686745      -28.343966
 C         -34.310543      -89.969009      -29.415022
 C         -35.241383      -91.111702      -29.664454
 H         -35.201691      -92.381744      -26.427900
 H         -34.339256      -93.083961      -27.847620
 H         -32.579914      -89.584007      -28.121271
 H         -32.561028      -91.121254      -29.131096
 H         -36.429295      -90.822083      -27.903963
 H         -36.676270      -92.496559      -28.571211
 H         -33.790020      -89.392784      -30.253546
 H         -34.866230      -89.286392      -28.728748
 H         -36.028427      -90.831383      -30.301065
 H         -34.640293      -91.897743      -30.123903
