20
 generated by VMD
 C         -59.845642     -171.727188      -55.240429
 N         -59.562668     -172.744995      -54.863640
 H         -63.034199     -170.257141      -56.292942
 H         -60.204300     -170.763901      -55.588528
 C         -63.505062     -169.598557      -56.953636
 C         -62.663841     -168.267151      -57.369835
 C         -64.933548     -169.268570      -56.933327
 C         -63.104149     -167.870438      -58.758350
 C         -65.427208     -168.792908      -58.288834
 C         -64.580833     -167.694748      -58.911533
 H         -61.485096     -168.380585      -57.278687
 H         -62.919884     -167.428085      -56.691513
 H         -65.693840     -170.019180      -56.650246
 H         -65.165909     -168.518997      -56.235474
 H         -62.749538     -168.632706      -59.530155
 H         -62.727867     -166.825012      -59.048912
 H         -66.448021     -168.473938      -58.182858
 H         -65.550743     -169.613937      -59.027370
 H         -64.989418     -167.465073      -59.951172
 H         -64.792030     -166.756500      -58.402241
