20
 generated by VMD
 C         -32.668159      -92.934456      -25.798635
 N         -32.684471      -94.079941      -25.628166
 H         -33.877686      -95.064323      -28.819553
 H         -32.460247      -91.863884      -25.860249
 C         -34.205475      -94.062294      -29.075594
 C         -35.362022      -93.551003      -28.287035
 C         -33.791927      -93.253357      -30.272184
 C         -35.120365      -92.078957      -27.905989
 C         -33.577614      -91.758461      -29.831997
 C         -34.676346      -91.107986      -29.030298
 H         -35.317131      -94.266151      -27.538658
 H         -36.242428      -93.698586      -28.909197
 H         -32.779144      -93.564995      -30.617144
 H         -34.467300      -93.493843      -31.083908
 H         -34.531761      -91.905937      -27.004328
 H         -36.162067      -91.650368      -27.619026
 H         -33.438667      -91.120026      -30.702877
 H         -32.582745      -91.772697      -29.256470
 H         -34.312519      -90.126068      -28.751429
 H         -35.506828      -90.707191      -29.592779
