20
 generated by VMD
 C         -31.080570      -77.500160      -25.178791
 N         -32.033886      -77.066750      -25.618074
 H         -29.225727      -76.897232      -22.493263
 H         -30.141796      -77.853683      -24.940651
 C         -28.631954      -77.796494      -22.358505
 C         -27.453833      -78.012947      -23.230759
 C         -28.999561      -78.817947      -21.243122
 C         -26.243750      -78.704933      -22.545370
 C         -27.836201      -79.778618      -20.752993
 C         -26.758575      -79.991669      -21.835287
 H         -27.072067      -77.029846      -23.491413
 H         -27.868126      -78.627579      -24.024172
 H         -29.361458      -78.274864      -20.297533
 H         -29.731022      -79.428177      -21.773134
 H         -25.771275      -77.948860      -21.915609
 H         -25.405140      -79.023575      -23.206921
 H         -28.006973      -80.753326      -20.247564
 H         -27.326876      -79.234955      -19.912607
 H         -25.872282      -80.464081      -21.380836
 H         -27.036312      -80.641289      -22.703592
