20
 generated by VMD
 C         -74.236259     -200.250305      -66.353188
 N         -73.293915     -200.926422      -66.358841
 H         -76.527306     -198.087769      -68.733170
 H         -75.260712     -199.907547      -66.546486
 C         -75.424820     -198.136520      -68.565865
 C         -74.821320     -197.274323      -67.551346
 C         -74.516563     -199.011200      -69.388466
 C         -73.659241     -196.463120      -68.230148
 C         -73.200905     -198.322647      -69.781113
 C         -72.542984     -197.429993      -68.747589
 H         -74.242119     -197.805420      -66.711723
 H         -75.519394     -196.595642      -67.115463
 H         -74.291527     -199.918549      -68.786705
 H         -74.998940     -199.363144      -70.350006
 H         -73.150398     -195.682892      -67.644714
 H         -74.141090     -196.049240      -69.177612
 H         -73.421783     -197.858749      -70.758308
 H         -72.388458     -199.119080      -70.106415
 H         -72.170113     -198.017563      -67.964973
 H         -71.580986     -196.867691      -69.223625
