20
 generated by VMD
 C         -24.781546      -70.133469      -16.382366
 N         -24.769274      -70.802353      -15.435272
 H         -23.769241      -67.659325      -19.075481
 H         -24.592649      -69.593063      -17.232439
 C         -24.349344      -68.440178      -19.560131
 C         -23.847223      -68.996033      -20.921589
 C         -25.785557      -67.960854      -19.566740
 C         -24.771603      -70.106720      -21.388908
 C         -26.685299      -69.014297      -20.099159
 C         -26.172802      -69.655838      -21.447132
 H         -22.785513      -69.202347      -20.689939
 H         -23.805107      -68.162979      -21.705902
 H         -26.076893      -67.889633      -18.544310
 H         -25.801048      -67.073540      -20.203903
 H         -24.574291      -70.856461      -20.659075
 H         -24.382910      -70.382339      -22.385265
 H         -27.732283      -68.711792      -20.360153
 H         -26.812805      -69.931412      -19.424637
 H         -26.803604      -70.506279      -21.732084
 H         -26.355103      -68.920052      -22.186707
