20
 generated by VMD
 C         -38.371021     -109.701897      -36.434551
 N         -37.599133     -109.042313      -35.905403
 H         -40.531036     -111.533913      -36.923172
 H         -38.924152     -110.341606      -37.084476
 C         -41.283218     -111.732185      -36.152424
 C         -42.049835     -113.073776      -36.297153
 C         -42.006657     -110.870239      -35.141506
 C         -42.411804     -113.798065      -35.038864
 C         -42.109077     -111.553116      -33.891090
 C         -42.819614     -112.855721      -33.897324
 H         -41.574574     -113.853493      -36.903385
 H         -42.986465     -112.885834      -36.973904
 H         -41.331757     -109.953476      -35.161095
 H         -43.030518     -110.673805      -35.553844
 H         -41.603504     -114.427544      -34.664150
 H         -43.290268     -114.369164      -35.258442
 H         -42.683090     -110.969215      -33.174618
 H         -41.083515     -111.645317      -33.504982
 H         -42.636803     -113.419685      -32.986443
 H         -44.002941     -112.598663      -33.908386
