20
 generated by VMD
 C         -78.153198     -210.443176      -76.120392
 N         -77.105621     -210.983231      -76.296043
 H         -80.423241     -212.615280      -74.960335
 H         -79.077385     -209.802307      -75.963326
 C         -80.166595     -213.379333      -74.228798
 C         -78.825951     -213.358978      -73.673882
 C         -81.215744     -214.001389      -73.399170
 C         -78.787628     -213.318390      -72.156258
 C         -81.164818     -213.721375      -71.887589
 C         -79.777321     -214.020721      -71.312416
 H         -78.212135     -212.528442      -74.073715
 H         -78.383453     -214.278015      -73.942665
 H         -82.219193     -213.653244      -73.663269
 H         -81.141106     -215.078125      -73.525833
 H         -78.921707     -212.264206      -71.868889
 H         -77.755280     -213.328094      -71.897308
 H         -81.907516     -214.418732      -71.399147
 H         -81.497589     -212.735580      -71.701721
 H         -79.653534     -213.608734      -70.358925
 H         -79.617805     -215.102905      -71.100082
