20
 generated by VMD
 C         -22.912949      -68.488464      -16.600225
 N         -23.037191      -69.262054      -15.735366
 H         -24.024506      -65.878967      -19.091078
 H         -23.006235      -67.861320      -17.543844
 C         -24.540552      -66.866447      -19.300606
 C         -23.967331      -67.637077      -20.397572
 C         -26.004593      -66.948944      -18.959101
 C         -24.420523      -69.058846      -20.499773
 C         -26.634264      -68.384956      -19.251680
 C         -26.013760      -68.945374      -20.549152
 H         -22.980619      -67.639572      -20.179232
 H         -24.200317      -67.075996      -21.329527
 H         -26.207296      -66.953590      -17.908400
 H         -26.525545      -66.187836      -19.583963
 H         -24.008127      -69.659531      -19.673527
 H         -23.982149      -69.494034      -21.448914
 H         -27.715086      -68.295990      -19.245052
 H         -26.239853      -69.073792      -18.484398
 H         -26.257191      -69.959625      -20.825495
 H         -26.308182      -68.341553      -21.396606
