20
 generated by VMD
 C         -40.675953     -104.051437      -36.907852
 N         -40.039856     -104.936592      -36.483074
 H         -40.053513     -106.727921      -34.702156
 H         -41.158527     -103.207222      -37.328938
 C         -39.826305     -107.150772      -33.716496
 C         -38.473759     -106.668213      -33.223282
 C         -39.922688     -108.662895      -33.503647
 C         -38.216301     -106.925621      -31.696640
 C         -39.639576     -108.943245      -31.988613
 C         -38.346607     -108.486267      -31.440298
 H         -38.526817     -105.598305      -33.575424
 H         -37.698978     -107.233955      -33.747021
 H         -40.922550     -108.960510      -33.991154
 H         -39.129829     -109.135757      -34.133354
 H         -38.965725     -106.397194      -31.123346
 H         -37.250683     -106.527237      -31.317951
 H         -39.610531     -110.100311      -31.936054
 H         -40.420757     -108.507179      -31.279192
 H         -38.299831     -108.565819      -30.293983
 H         -37.462772     -108.914474      -31.795172
