20
 generated by VMD
 C         -49.896740     -127.756050      -40.502625
 N         -50.793064     -127.939598      -41.178692
 H         -47.484890     -127.601959      -41.649864
 H         -48.897152     -127.588066      -40.077278
 C         -46.866814     -126.842316      -41.086533
 C         -45.760914     -127.312737      -40.243416
 C         -46.822842     -125.394203      -41.397038
 C         -44.337070     -126.878906      -40.631462
 C         -45.514790     -124.826302      -41.914711
 C         -44.381119     -125.288994      -40.820442
 H         -45.848904     -128.386810      -40.068394
 H         -45.893429     -126.886963      -39.174782
 H         -47.581738     -125.251709      -42.267544
 H         -46.951908     -124.873940      -40.500507
 H         -44.058998     -127.453224      -41.549892
 H         -43.522831     -127.106255      -39.888039
 H         -45.455952     -123.746384      -41.806854
 H         -45.145210     -125.158356      -42.942398
 H         -43.403355     -125.030014      -41.049358
 H         -44.640274     -124.824104      -39.874168
