20
 generated by VMD
 C         -40.151817      -99.604088      -28.842180
 N         -39.346043     -100.071732      -28.189430
 H         -37.365887      -97.996544      -30.756550
 H         -40.737595      -98.985588      -29.590805
 C         -36.377613      -98.581833      -30.795717
 C         -35.809494      -98.898781      -32.137939
 C         -35.491478      -98.319687      -29.518635
 C         -34.683659      -97.960915      -32.519802
 C         -34.260990      -97.403267      -29.855267
 C         -33.645107      -97.770470      -31.290968
 H         -36.588882      -99.051346      -32.829594
 H         -35.326412      -99.880661      -31.859701
 H         -36.136604      -97.920662      -28.762377
 H         -35.050110      -99.263824      -29.143024
 H         -35.138893      -96.968094      -32.735142
 H         -34.315952      -98.414276      -33.393353
 H         -33.569206      -97.497734      -29.033501
 H         -34.359108      -96.304588      -29.888092
 H         -32.764805      -97.117332      -31.606203
 H         -33.230091      -98.727341      -31.255194
