20
 generated by VMD
 C         -38.007988     -109.897316      -36.292049
 N         -37.468243     -108.917717      -36.055660
 H         -40.250645     -113.042542      -36.619850
 H         -38.717838     -110.772568      -36.250469
 C         -41.242790     -112.931396      -36.208054
 C         -42.446663     -113.796967      -36.607925
 C         -41.525082     -111.810493      -35.128139
 C         -43.294258     -114.148125      -35.328762
 C         -42.434635     -112.245384      -34.030708
 C         -43.701859     -112.861862      -34.615028
 H         -42.159500     -114.823822      -36.942070
 H         -43.058392     -113.346527      -37.355927
 H         -40.546406     -111.488853      -34.929741
 H         -41.994167     -111.049103      -35.767082
 H         -42.622768     -114.732323      -34.720837
 H         -44.196667     -114.827995      -35.549011
 H         -42.741692     -111.339508      -33.448601
 H         -41.940235     -113.029022      -33.399563
 H         -44.561295     -113.046379      -33.926216
 H         -44.114384     -112.190331      -35.398468
