20
 generated by VMD
 C         -78.547722     -209.702988      -77.344780
 N         -79.058624     -209.101929      -76.523338
 H         -78.190353     -210.288956      -73.487038
 H         -78.029518     -210.269760      -78.171478
 C         -78.475510     -211.124039      -72.770836
 C         -77.402214     -211.378204      -71.734291
 C         -79.738235     -211.979248      -73.006310
 C         -77.930588     -211.894180      -70.474541
 C         -80.253471     -212.470810      -71.713661
 C         -79.163177     -212.888474      -70.721436
 H         -76.681190     -210.598709      -71.613686
 H         -76.768875     -212.115707      -72.219643
 H         -80.445572     -211.327026      -73.628197
 H         -79.364601     -212.864304      -73.598679
 H         -78.319290     -211.110260      -69.834251
 H         -77.140495     -212.396439      -69.908737
 H         -81.054764     -213.266907      -71.866806
 H         -80.867027     -211.707352      -71.238029
 H         -79.575256     -212.985245      -69.714462
 H         -78.824951     -213.913300      -70.984253
