20
 generated by VMD
 C         -21.662449      -55.797096      -17.559917
 N         -20.653215      -55.384483      -18.029364
 H         -23.231747      -58.538105      -15.236671
 H         -22.578363      -56.602306      -17.480476
 C         -22.304045      -59.019897      -15.013116
 C         -21.629725      -58.919144      -13.596975
 C         -21.700186      -59.845951      -16.070778
 C         -20.945787      -60.156349      -13.161836
 C         -20.248730      -60.360287      -15.671367
 C         -20.330805      -61.102009      -14.329507
 H         -22.386957      -58.600208      -12.904515
 H         -20.830427      -58.187180      -13.686016
 H         -22.354347      -60.657581      -16.447165
 H         -21.619827      -59.216137      -16.990084
 H         -21.767056      -60.741913      -12.675632
 H         -20.186678      -59.898750      -12.391401
 H         -19.451843      -59.633644      -15.680277
 H         -19.959808      -61.050495      -16.456877
 H         -20.818998      -62.071518      -14.471316
 H         -19.264275      -61.282391      -14.038769
