20
 generated by VMD
 C         -57.544243     -165.797836      -56.597080
 N         -57.924545     -166.752396      -56.099297
 H         -60.752586     -165.203400      -54.480991
 H         -57.196041     -164.907410      -57.023647
 C         -61.733368     -165.295563      -54.884041
 C         -61.785107     -166.685349      -55.293461
 C         -62.385380     -164.138870      -55.390835
 C         -63.232578     -166.949539      -55.708714
 C         -63.829037     -164.449326      -55.764275
 C         -63.956116     -165.829391      -56.442711
 H         -61.577812     -167.337997      -54.557308
 H         -61.138649     -166.882431      -56.180088
 H         -62.178745     -163.281586      -54.645329
 H         -61.943947     -163.807327      -56.295349
 H         -63.841198     -167.196777      -54.858929
 H         -63.249584     -167.846619      -56.318092
 H         -64.131409     -163.711121      -56.407711
 H         -64.350319     -164.604935      -54.817696
 H         -65.000366     -166.065826      -56.486858
 H         -63.750881     -165.735306      -57.493984
