20
 generated by VMD
 C         -44.746040     -122.359444      -35.969616
 N         -44.451550     -122.425262      -34.876434
 H         -45.169544     -122.860771      -39.505440
 H         -44.840229     -122.219162      -37.064331
 C         -44.969372     -121.782219      -39.727345
 C         -43.540043     -121.404327      -39.571037
 C         -46.007774     -120.717926      -39.465702
 C         -43.252281     -120.131271      -40.343082
 C         -45.726864     -119.535744      -40.439182
 C         -44.342201     -118.974068      -40.204662
 H         -42.842331     -122.085823      -39.888210
 H         -43.353928     -121.281494      -38.509514
 H         -47.031651     -121.160599      -39.743179
 H         -46.000416     -120.488304      -38.374020
 H         -43.374615     -120.435356      -41.434361
 H         -42.260071     -119.821922      -40.089718
 H         -46.564587     -118.921791      -40.115883
 H         -45.964565     -119.839813      -41.398056
 H         -44.060993     -118.047890      -40.837990
 H         -44.403778     -118.650116      -39.102470
