20
 generated by VMD
 C         -41.099270     -104.606827      -35.973438
 N         -42.097843     -104.935738      -36.455780
 H         -38.206177     -104.156532      -33.276154
 H         -40.302109     -104.031448      -35.566372
 C         -38.203892     -105.041306      -32.736237
 C         -36.960861     -105.628372      -32.169106
 C         -39.098904     -106.145950      -33.382206
 C         -37.169800     -106.666710      -31.168175
 C         -39.439449     -107.125374      -32.329433
 C         -38.087505     -107.681145      -31.716875
 H         -36.437382     -104.900421      -31.571821
 H         -36.282658     -105.917366      -33.063873
 H         -39.986008     -105.731926      -33.759495
 H         -38.579578     -106.471748      -34.312214
 H         -37.547440     -106.197395      -30.170794
 H         -36.281506     -107.154900      -30.770447
 H         -40.061859     -107.877365      -32.804295
 H         -39.980228     -106.590263      -31.450699
 H         -38.326317     -108.299980      -30.810400
 H         -37.595482     -108.309570      -32.457489
