20
 generated by VMD
 C         -40.342915     -100.166107      -30.077074
 N         -41.401260     -100.563873      -30.408693
 H         -37.071594     -101.739166      -30.468084
 H         -39.286217     -100.110954      -29.835123
 C         -36.536175     -100.809082      -30.784159
 C         -36.270164     -100.336906      -32.205296
 C         -35.363575     -100.748932      -29.998894
 C         -35.477875      -99.131081      -32.462498
 C         -34.616539      -99.430565      -30.053885
 C         -34.225994      -98.953682      -31.589434
 H         -37.259735     -100.180527      -32.675968
 H         -35.820213     -101.173157      -32.714531
 H         -35.705673     -100.987099      -28.978998
 H         -34.668987     -101.535286      -30.287296
 H         -36.039021      -98.139236      -32.596642
 H         -35.066944      -99.270424      -33.492374
 H         -33.701054      -99.443459      -29.533014
 H         -35.280228      -98.552864      -29.711529
 H         -33.943203      -97.895996      -31.388771
 H         -33.476917      -99.590561      -31.984991
