20
 generated by VMD
 C         -32.647701      -96.215019      -25.466385
 N         -33.042950      -95.801788      -24.447514
 H         -34.208241      -93.921463      -27.480331
 H         -32.350113      -96.388062      -26.467287
 C         -34.496399      -93.622047      -28.458342
 C         -35.872387      -93.548897      -28.938551
 C         -33.443443      -93.320496      -29.454073
 C         -36.194073      -92.441666      -29.851103
 C         -33.730034      -92.150986      -30.469681
 C         -35.136711      -92.228813      -31.035959
 H         -36.618183      -93.519691      -28.086035
 H         -36.026394      -94.498795      -29.411409
 H         -32.419010      -93.221062      -29.015135
 H         -33.299519      -94.207787      -30.073076
 H         -36.177013      -91.583748      -29.216978
 H         -37.164555      -92.527611      -30.343721
 H         -32.958031      -92.404930      -31.257475
 H         -33.630299      -91.221367      -29.994734
 H         -35.284401      -91.319977      -31.618885
 H         -35.196415      -93.148849      -31.673018
