20
 generated by VMD
 C          -3.487432      -17.369852        2.206969
 N          -3.189323      -18.435932        2.047791
 H          -5.577549      -20.410341        0.677206
 H          -5.951806      -21.012672       -0.970331
 C          -6.046520      -20.122849       -0.282588
 C          -5.430823      -18.835255       -0.862593
 C          -7.611072      -19.924156        0.005949
 C          -6.205586      -18.236271       -2.048844
 C          -8.285522      -19.371685       -1.267197
 C          -7.703426      -18.056782       -1.757121
 H          -4.421466      -18.999996       -1.349696
 H          -5.320004      -18.079216       -0.136004
 H          -8.028747      -20.952789        0.356220
 H          -7.788569      -19.183830        0.854976
 H          -6.071988      -18.927023       -2.938096
 H          -5.727144      -17.289902       -2.295681
 H          -9.357472      -19.257389       -1.080204
 H          -8.193631      -20.062338       -2.075767
 H          -8.179251      -17.855211       -2.732027
 H          -8.016615      -17.179514       -1.139921
