20
 generated by VMD
 C         -41.603088     -119.513206      -34.391285
 N         -41.381908     -120.145454      -35.370300
 H         -43.387287     -118.870094      -36.867153
 H         -41.562244     -118.892342      -33.559811
 C         -43.739449     -118.222137      -37.620037
 C         -42.993191     -118.290863      -38.924046
 C         -45.127533     -117.565765      -37.722267
 C         -43.819191     -118.587860      -40.149853
 C         -45.906311     -118.122581      -38.960026
 C         -45.124462     -117.816833      -40.224445
 H         -42.214958     -119.053787      -38.709156
 H         -42.541996     -117.253777      -38.895191
 H         -45.843071     -117.836067      -36.905312
 H         -44.998932     -116.546837      -37.658077
 H         -44.052593     -119.643921      -40.117840
 H         -43.139759     -118.518913      -41.044392
 H         -46.805023     -117.658554      -39.160259
 H         -46.221363     -119.178871      -38.878429
 H         -45.692738     -118.350899      -41.101349
 H         -45.080860     -116.787842      -40.607220
