20
 generated by VMD
 C         -65.815239     -177.663834      -56.868649
 N         -66.214134     -176.594681      -57.080986
 H         -64.911163     -175.702560      -59.011898
 H         -65.397270     -178.692368      -56.785809
 C         -64.674049     -174.642334      -59.430756
 C         -65.415245     -173.625534      -58.634842
 C         -63.535500     -174.339188      -60.292828
 C         -65.238678     -172.219650      -59.033325
 C         -63.048065     -172.811111      -60.208954
 C         -64.406631     -172.019653      -60.232510
 H         -65.379906     -173.720551      -57.457840
 H         -66.435654     -173.942566      -58.768719
 H         -62.662052     -174.996887      -60.337742
 H         -63.800846     -174.548996      -61.323730
 H         -64.893166     -171.770401      -58.101181
 H         -66.256653     -171.785812      -59.082710
 H         -62.344486     -172.558365      -60.975353
 H         -62.570473     -172.491226      -59.252476
 H         -64.106133     -170.977249      -60.160618
 H         -64.936493     -172.062759      -61.272171
