20
 generated by VMD
 C         -30.181934      -80.184471      -26.451561
 N         -29.432489      -79.295143      -26.275463
 H         -28.371077      -82.793480      -25.521725
 H         -30.646986      -81.146973      -26.346937
 C         -29.063816      -82.872498      -24.709900
 C         -28.970894      -81.987206      -23.492884
 C         -30.099321      -84.031189      -24.691158
 C         -30.311029      -81.960457      -22.610432
 C         -31.171368      -83.994789      -23.642078
 C         -30.790043      -83.361992      -22.291300
 H         -28.692657      -80.879929      -23.771502
 H         -28.203209      -82.484428      -22.884813
 H         -30.709885      -84.093445      -25.629370
 H         -29.491772      -84.893738      -24.531990
 H         -31.038090      -81.401299      -23.122904
 H         -30.073235      -81.285164      -21.709349
 H         -31.394670      -85.011810      -23.309336
 H         -32.046825      -83.603027      -24.040911
 H         -31.636711      -83.106956      -21.582100
 H         -29.997175      -83.920822      -21.830891
