20
 generated by VMD
 C         -67.799248     -179.508057      -58.755489
 N         -68.099106     -179.724304      -59.840828
 H         -67.291618     -176.341370      -59.618702
 H         -67.535896     -179.392700      -57.747108
 C         -66.396248     -176.732635      -60.136395
 C         -66.162338     -176.134384      -61.460602
 C         -65.248039     -177.246353      -59.292030
 C         -65.081871     -175.068481      -61.252750
 C         -64.228050     -176.069153      -59.052353
 C         -63.800686     -175.538437      -60.431545
 H         -67.078690     -175.690399      -61.893456
 H         -65.753563     -176.827835      -62.202881
 H         -65.782921     -177.430176      -58.280857
 H         -64.725792     -178.146805      -59.580154
 H         -65.489624     -174.281464      -60.655876
 H         -64.877968     -174.759384      -62.231258
 H         -63.379761     -176.371017      -58.453152
 H         -64.841225     -175.369965      -58.460045
 H         -62.967842     -174.816513      -60.401630
 H         -63.539440     -176.326843      -61.084602
