20
 generated by VMD
 C         -50.917603     -130.858963      -46.001278
 N         -50.455181     -130.043030      -46.618896
 H         -47.896843     -132.104980      -44.526478
 H         -51.251602     -131.658218      -45.361755
 C         -48.118210     -132.298386      -43.441883
 C         -48.519730     -133.708740      -42.941547
 C         -48.190720     -131.088715      -42.561295
 C         -48.163868     -133.896622      -41.443222
 C         -47.834251     -131.502411      -41.125683
 C         -48.587112     -132.725464      -40.604038
 H         -48.003288     -134.609833      -43.434902
 H         -49.514248     -133.948761      -43.139183
 H         -47.576115     -130.253250      -42.880680
 H         -49.174877     -130.703079      -42.777416
 H         -47.137627     -134.107681      -41.208252
 H         -48.667038     -134.727325      -40.970776
 H         -48.073990     -130.637741      -40.424561
 H         -46.770981     -131.785797      -40.952339
 H         -48.220062     -132.881577      -39.589375
 H         -49.674400     -132.511978      -40.464600
