20
 generated by VMD
 C         -67.054550     -189.785675      -67.068649
 N         -67.116913     -190.131760      -65.929352
 H         -70.599754     -190.889297      -66.319977
 H         -67.244270     -189.490341      -68.076897
 C         -71.069191     -190.352676      -65.524719
 C         -72.259361     -191.155045      -64.789894
 C         -70.395058     -189.257492      -64.669403
 C         -73.279884     -190.170410      -64.168060
 C         -71.435776     -188.434540      -63.813339
 C         -72.587250     -189.210907      -63.188828
 H         -71.680840     -191.718216      -63.983593
 H         -72.808334     -191.722656      -65.508598
 H         -69.657265     -189.729645      -63.976803
 H         -69.943672     -188.600555      -65.313797
 H         -74.036308     -190.707993      -63.543037
 H         -73.736115     -189.603485      -65.030525
 H         -71.865700     -187.656403      -64.422028
 H         -70.929146     -187.863510      -63.034004
 H         -72.214020     -189.807983      -62.301971
 H         -73.241531     -188.555130      -62.785549
