20
 generated by VMD
 C         -52.110428     -146.245392      -44.024570
 N         -51.657616     -146.457565      -45.098343
 H         -53.732273     -145.285980      -46.703320
 H         -52.537357     -145.984055      -43.046829
 C         -53.823208     -144.872101      -47.728851
 C         -52.849178     -144.811371      -48.826450
 C         -54.855663     -143.875366      -47.598148
 C         -53.512188     -144.198166      -50.113003
 C         -55.349918     -143.171631      -48.829685
 C         -54.250912     -142.888138      -49.834637
 H         -52.631672     -145.885818      -49.069695
 H         -52.005730     -144.373810      -48.482109
 H         -55.732708     -144.217529      -46.988674
 H         -54.445168     -143.016205      -46.857101
 H         -54.074593     -145.004395      -50.635559
 H         -52.715405     -144.042511      -50.906582
 H         -55.850891     -142.176926      -48.615646
 H         -56.187138     -143.705688      -49.189304
 H         -54.670235     -142.477966      -50.727837
 H         -53.581100     -142.263275      -49.290909
