20
 generated by VMD
 C          -1.243711      -10.897786        0.809135
 N          -1.242269       -9.917394        1.345693
 H          -3.627006      -12.570730        0.593281
 H          -4.624082      -12.228483        1.918604
 C          -4.289188      -13.061267        1.325956
 C          -3.378998      -13.951373        2.178270
 C          -5.395515      -13.885088        0.701753
 C          -4.203838      -14.627090        3.245862
 C          -6.228536      -14.673628        1.696674
 C          -5.414003      -15.433558        2.722237
 H          -2.625718      -13.428977        2.636089
 H          -2.950995      -14.705466        1.548981
 H          -5.971323      -13.108620        0.202871
 H          -4.862317      -14.519115       -0.027871
 H          -4.616158      -13.932620        3.948499
 H          -3.700644      -15.284633        3.863580
 H          -7.006426      -15.295304        1.229815
 H          -6.796546      -13.901550        2.265803
 H          -6.046219      -15.896357        3.556423
 H          -4.958343      -16.343704        2.241663
