20
 generated by VMD
 C         -11.783291      -33.663345       -8.544495
 N         -10.808003      -34.022003       -9.010729
 H         -11.653125      -36.802372       -8.083377
 H         -11.974813      -36.278759       -6.461057
 C         -12.268154      -37.008591       -7.200673
 C         -12.011099      -38.383396       -6.545929
 C         -13.721532      -36.861843       -7.701285
 C         -12.954924      -38.616215       -5.418440
 C         -14.722328      -37.237812       -6.639129
 C         -14.417665      -38.523449       -5.942590
 H         -10.942032      -38.474640       -6.268451
 H         -12.209024      -39.139709       -7.312740
 H         -13.947280      -35.846588       -8.051363
 H         -13.905092      -37.443508       -8.641738
 H         -12.686023      -37.838417       -4.636482
 H         -12.847031      -39.614632       -4.963955
 H         -15.690221      -37.260117       -7.077776
 H         -14.728498      -36.398399       -5.932705
 H         -15.127370      -38.623875       -5.107843
 H         -14.497537      -39.351891       -6.591014
