20
 generated by VMD
 C         -11.224640      -34.041203       -8.246163
 N         -10.883243      -33.736271       -9.272341
 H         -11.733932      -37.902740       -8.055300
 H         -12.358667      -37.065922       -6.586188
 C         -12.494891      -37.926083       -7.269696
 C         -12.477729      -39.303150       -6.591382
 C         -13.734041      -37.838745       -8.083755
 C         -13.719305      -39.602448       -5.783996
 C         -15.007807      -37.888199       -7.237756
 C         -15.041671      -39.241741       -6.464003
 H         -11.581834      -39.475590       -6.009915
 H         -12.293821      -39.999123       -7.400982
 H         -13.695971      -36.923382       -8.635366
 H         -13.875195      -38.624588       -8.881313
 H         -13.740459      -39.145664       -4.781518
 H         -13.697516      -40.661873       -5.556978
 H         -15.923191      -37.793617       -7.831161
 H         -14.995928      -37.051239       -6.454278
 H         -15.812970      -39.224796       -5.645386
 H         -15.342403      -40.060360       -7.150339
