20
 generated by VMD
 C         -68.245506     -193.633469      -65.249817
 N         -68.275497     -194.762146      -65.288498
 H         -70.997269     -192.331436      -67.817032
 H         -68.222122     -192.520096      -65.109413
 C         -71.642212     -192.323029      -66.952530
 C         -71.924309     -190.979843      -66.336029
 C         -72.546303     -193.434601      -66.644669
 C         -73.419403     -190.738205      -66.165451
 C         -73.407417     -193.203781      -65.489197
 C         -74.130363     -191.826859      -65.331184
 H         -71.361168     -190.277695      -66.878242
 H         -71.434601     -190.997635      -65.337685
 H         -73.226303     -193.605057      -67.448769
 H         -71.924057     -194.272446      -66.520363
 H         -73.920700     -190.619446      -67.177666
 H         -73.479767     -189.843292      -65.495888
 H         -72.678917     -193.161560      -64.661896
 H         -74.199936     -193.996307      -65.285080
 H         -75.258034     -191.829132      -65.700218
 H         -74.160522     -191.534637      -64.277679
