20
 generated by VMD
 C         -58.262276     -150.967194      -49.210888
 N         -58.383339     -152.007492      -48.650291
 H         -55.711597     -149.778366      -47.706951
 H         -58.034294     -149.945877      -49.622059
 C         -55.254311     -149.509232      -48.716541
 C         -54.321888     -150.406952      -49.421082
 C         -55.049789     -148.059204      -48.992336
 C         -54.208748     -150.010513      -50.933800
 C         -54.839764     -147.680969      -50.410172
 C         -53.809528     -148.487198      -51.089371
 H         -54.578106     -151.464874      -49.434891
 H         -53.274361     -150.163147      -49.036015
 H         -56.007149     -147.643555      -48.562565
 H         -54.137783     -147.798386      -48.474869
 H         -55.180408     -150.124207      -51.472195
 H         -53.468224     -150.751419      -51.320114
 H         -54.720970     -146.533478      -50.354362
 H         -55.745167     -147.715607      -51.143120
 H         -53.609467     -148.217422      -52.201370
 H         -52.851540     -148.391312      -50.602757
