20
 generated by VMD
 C          -8.127937      -23.558386        2.112140
 N          -7.741623      -23.603886        3.150566
 H          -8.919036      -23.553528       -1.484856
 H          -9.494361      -22.542202       -2.822564
 C          -8.584293      -22.925158       -2.367377
 C          -7.772530      -23.862413       -3.342595
 C          -7.684271      -21.752836       -1.858881
 C          -7.046723      -22.934696       -4.432957
 C          -6.987590      -20.969435       -2.916524
 C          -6.096051      -21.857054       -3.773299
 H          -8.382914      -24.520517       -3.966358
 H          -7.054595      -24.392515       -2.734850
 H          -8.391662      -21.123590       -1.289911
 H          -6.990561      -22.018442       -1.061871
 H          -7.896577      -22.526640       -4.984598
 H          -6.462965      -23.650333       -5.050872
 H          -6.378212      -20.227003       -2.405847
 H          -7.676532      -20.390957       -3.532496
 H          -5.589371      -21.241423       -4.483773
 H          -5.263919      -22.254431       -3.201249
