20
 generated by VMD
 C         -78.931007     -206.880325      -75.346947
 N         -79.700394     -207.063431      -76.252708
 H         -78.285164     -210.008560      -73.180573
 H         -78.325539     -206.599091      -74.549362
 C         -77.866432     -209.667892      -72.272034
 C         -76.689690     -208.777832      -71.971619
 C         -78.166687     -210.691666      -71.225647
 C         -76.689255     -208.297562      -70.463150
 C         -78.259323     -210.132874      -69.829315
 C         -76.963593     -209.454605      -69.579414
 H         -76.747246     -207.900970      -72.623352
 H         -75.756149     -209.307877      -72.178688
 H         -79.164757     -210.917023      -71.605957
 H         -77.640739     -211.657913      -71.215614
 H         -77.448860     -207.595001      -70.225250
 H         -75.705544     -207.952850      -70.194534
 H         -78.476402     -210.954514      -69.072411
 H         -79.074867     -209.487076      -69.841927
 H         -76.835526     -209.338196      -68.482033
 H         -76.169106     -210.204330      -69.899849
