20
 generated by VMD
 C         -50.860512     -129.295578      -45.084087
 N         -50.956985     -130.104477      -44.211849
 H         -49.147533     -128.566605      -41.750534
 H         -50.834927     -128.428696      -45.761890
 C         -48.253269     -128.671509      -41.212021
 C         -47.794621     -130.130692      -40.930752
 C         -47.150433     -127.657104      -40.906345
 C         -46.437946     -130.481445      -41.547050
 C         -45.687939     -128.102249      -41.310810
 C         -45.390499     -129.523270      -40.901222
 H         -48.656574     -130.782333      -41.259052
 H         -47.782852     -130.294067      -39.815037
 H         -47.454029     -126.728577      -41.423256
 H         -47.107281     -127.468925      -39.857914
 H         -46.376980     -130.473679      -42.622242
 H         -46.183331     -131.493561      -41.338547
 H         -45.101952     -127.263184      -40.992443
 H         -45.703178     -127.941368      -42.327209
 H         -44.379105     -129.884598      -41.233234
 H         -45.346046     -129.611938      -39.844170
