20
 generated by VMD
 C          -6.853142      -23.305264        2.956391
 N          -6.886270      -22.615906        2.096647
 H          -7.986894      -22.827814       -0.624653
 H          -9.004158      -22.301508       -2.032754
 C          -7.968985      -22.234608       -1.571243
 C          -7.129599      -23.033365       -2.594656
 C          -7.586178      -20.805159       -1.379933
 C          -6.996789      -22.311819       -3.986859
 C          -7.512136      -20.104086       -2.732991
 C          -6.588958      -20.845789       -3.740863
 H          -7.562604      -24.088627       -2.657747
 H          -6.126906      -22.969286       -2.269618
 H          -8.150158      -20.277636       -0.569237
 H          -6.604972      -20.803576       -0.910623
 H          -8.020123      -22.301403       -4.494689
 H          -6.414661      -22.941505       -4.719692
 H          -7.274187      -19.026752       -2.553381
 H          -8.531407      -19.984577       -3.169788
 H          -6.577347      -20.271049       -4.708081
 H          -5.538379      -20.820028       -3.329985
