20
 generated by VMD
 C         -40.995335     -102.249649      -34.858448
 N         -41.530682     -102.015572      -35.884228
 H         -39.727711     -104.341530      -31.876158
 H         -40.327698     -102.433342      -34.076321
 C         -38.767689     -104.679977      -31.965914
 C         -37.745529     -104.086479      -32.900784
 C         -38.285343     -105.723434      -30.931065
 C         -36.483486     -103.688995      -31.976715
 C         -36.859379     -105.478722      -30.376951
 C         -35.927303     -104.882172      -31.377094
 H         -37.904800     -103.056915      -33.260708
 H         -37.517151     -104.767570      -33.764511
 H         -39.004520     -105.882523      -30.121376
 H         -38.169464     -106.647362      -31.515572
 H         -36.769176     -102.912560      -31.246910
 H         -35.777142     -103.192787      -32.686008
 H         -36.288002     -106.376236      -29.981712
 H         -37.033195     -104.881981      -29.543673
 H         -34.996513     -104.575684      -30.741283
 H         -35.704300     -105.665871      -32.070614
