20
 generated by VMD
 C          -1.325386      -10.893140        0.770434
 N          -1.126976      -10.050279        1.455966
 H          -3.708865      -12.572943        0.458458
 H          -4.788363      -12.351146        1.771696
 C          -4.338344      -13.118437        1.168670
 C          -3.449954      -13.928842        2.197516
 C          -5.438983      -13.996483        0.614837
 C          -4.240039      -14.646519        3.309646
 C          -6.239694      -14.668591        1.687249
 C          -5.373498      -15.468487        2.674955
 H          -2.765165      -13.321081        2.657713
 H          -2.916631      -14.690663        1.663850
 H          -6.015471      -13.348044       -0.066189
 H          -4.857691      -14.754558        0.037223
 H          -4.630626      -14.007118        4.096970
 H          -3.682994      -15.358322        3.860417
 H          -6.872893      -15.379253        1.154377
 H          -6.964981      -14.019332        2.214285
 H          -6.073087      -15.824964        3.512125
 H          -4.990088      -16.450474        2.260474
