20
 generated by VMD
 C         -23.235785      -53.919262      -14.855762
 N         -24.284212      -53.397602      -15.162080
 H         -19.850611      -54.667923      -15.457733
 H         -22.582510      -54.488388      -14.437082
 C         -19.541998      -55.230946      -14.632933
 C         -19.031654      -54.204567      -13.588985
 C         -18.963646      -56.620689      -14.825900
 C         -18.432604      -55.064339      -12.470699
 C         -17.904587      -57.112434      -13.885421
 C         -17.313532      -56.012245      -12.986289
 H         -19.976545      -53.678539      -13.300462
 H         -18.247868      -53.618298      -14.103518
 H         -19.760241      -57.341743      -15.026037
 H         -18.417990      -56.550217      -15.738917
 H         -19.244083      -55.680103      -11.992877
 H         -17.954109      -54.437988      -11.729389
 H         -17.105509      -57.661907      -14.369971
 H         -18.464718      -57.850201      -13.253178
 H         -16.800447      -56.485756      -12.153765
 H         -16.578287      -55.471722      -13.503955
