20
 generated by VMD
 C         -41.079285     -103.130257      -35.643341
 N         -41.230476     -104.263603      -35.444710
 H         -39.299259     -104.288918      -33.423492
 H         -40.740047     -102.133766      -35.823891
 C         -38.694744     -104.979996      -32.992584
 C         -37.148674     -104.761322      -32.982121
 C         -39.178406     -106.443130      -32.753269
 C         -36.718594     -105.314995      -31.526140
 C         -38.783707     -106.895485      -31.329182
 C         -37.317982     -106.705299      -31.216087
 H         -36.955917     -103.680931      -33.061424
 H         -36.782051     -105.203079      -33.950947
 H         -40.184906     -106.523300      -32.987919
 H         -38.601639     -107.043991      -33.486130
 H         -37.082188     -104.732735      -30.676502
 H         -35.643902     -105.405014      -31.628437
 H         -39.068752     -107.893234      -31.190573
 H         -39.256321     -106.225105      -30.543365
 H         -37.212975     -107.067001      -30.178503
 H         -36.786194     -107.389946      -31.854277
