20
 generated by VMD
 C         -77.262154     -203.600418      -67.109901
 N         -77.980957     -204.368378      -66.658974
 H         -75.826256     -200.715546      -68.926163
 H         -76.521034     -202.841904      -67.311783
 C         -74.827248     -200.174454      -68.995987
 C         -74.714424     -198.756561      -68.521164
 C         -73.716118     -200.974640      -69.628563
 C         -73.653717     -198.099350      -69.327049
 C         -72.791496     -200.192123      -70.483284
 C         -73.288231     -198.735336      -70.650360
 H         -74.565826     -198.641266      -67.497055
 H         -75.683807     -198.386505      -68.775497
 H         -73.359604     -201.518188      -68.718391
 H         -74.233162     -201.757782      -70.150970
 H         -72.699516     -197.966141      -68.827507
 H         -73.993813     -197.096359      -69.567413
 H         -72.590942     -200.569626      -71.457024
 H         -71.859451     -200.293533      -70.003090
 H         -72.645050     -198.114670      -71.239128
 H         -74.153969     -198.761307      -71.355537
