20
 generated by VMD
 C         -49.965961     -143.747330      -44.403263
 N         -49.296612     -143.634781      -45.303993
 H         -52.093704     -141.886963      -45.606911
 H         -50.695564     -143.970078      -43.689098
 C         -52.771809     -141.758179      -46.422752
 C         -52.215931     -141.657196      -47.815491
 C         -54.283871     -141.323242      -46.219276
 C         -53.142326     -142.368240      -48.917625
 C         -55.111809     -141.818146      -47.319889
 C         -54.571571     -141.759186      -48.696056
 H         -51.169556     -142.129608      -47.838287
 H         -52.009079     -140.586975      -48.114918
 H         -54.618561     -141.451721      -45.140305
 H         -54.296219     -140.223343      -46.302132
 H         -53.274128     -143.550110      -48.826454
 H         -52.781116     -142.183502      -49.977535
 H         -56.097179     -141.292511      -47.159294
 H         -55.361134     -142.909912      -47.120628
 H         -55.222301     -142.326981      -49.406929
 H         -54.445084     -140.696091      -49.114929
