20
 generated by VMD
 C         -79.233665     -205.771667      -73.453873
 N         -79.196724     -206.874786      -73.862480
 H         -78.485184     -205.733337      -70.086571
 H         -78.924767     -204.781036      -72.996246
 C         -77.582436     -206.175873      -70.472649
 C         -76.635948     -205.346039      -71.380859
 C         -77.161346     -207.472977      -69.743919
 C         -75.334976     -205.276398      -70.645409
 C         -75.715210     -207.221161      -69.240501
 C         -74.819817     -206.610443      -70.310402
 H         -77.001022     -204.341782      -71.681656
 H         -76.701462     -205.979858      -72.218300
 H         -77.742653     -207.912033      -68.920906
 H         -77.114357     -208.200012      -70.551857
 H         -75.469154     -204.524933      -69.821281
 H         -74.643433     -204.807159      -71.368225
 H         -75.321037     -208.200272      -69.023735
 H         -75.817734     -206.589661      -68.285393
 H         -73.727020     -206.473862      -70.016449
 H         -74.883339     -207.387039      -71.043587
