20
 generated by VMD
 C         -50.685249     -128.637268      -42.139927
 N         -51.751415     -128.308365      -41.824932
 H         -47.877090     -127.811813      -40.442425
 H         -49.600235     -128.673187      -42.275322
 C         -46.966167     -127.441994      -40.726398
 C         -45.769611     -128.118622      -40.170929
 C         -46.980358     -126.075111      -41.245697
 C         -44.370415     -127.756538      -40.874878
 C         -45.670559     -125.734879      -41.992760
 C         -44.449356     -126.143539      -41.097328
 H         -45.901749     -129.246368      -40.184822
 H         -45.609814     -127.907120      -39.150101
 H         -47.685265     -125.732620      -42.058582
 H         -46.923668     -125.456055      -40.323677
 H         -44.314465     -128.199219      -41.896385
 H         -43.552544     -127.898544      -40.088173
 H         -45.645321     -124.685188      -42.060909
 H         -45.511906     -126.184212      -42.947296
 H         -43.482708     -125.750237      -41.418705
 H         -44.580273     -125.737648      -40.057930
