20
 generated by VMD
 C          -1.971181      -13.318560        0.587232
 N          -1.621424      -13.180732        1.639482
 H          -3.513070      -16.736433        1.698264
 H          -4.045911      -16.392420       -0.018805
 C          -4.397632      -16.620445        1.008162
 C          -5.252467      -15.453678        1.426601
 C          -5.226170      -17.893471        0.937064
 C          -6.430320      -15.215298        0.517160
 C          -6.479178      -17.697351        0.106171
 C          -7.307969      -16.529604        0.567999
 H          -4.652856      -14.606217        1.583808
 H          -5.643929      -15.648547        2.453842
 H          -4.640409      -18.830509        0.533445
 H          -5.653899      -18.148380        1.971435
 H          -6.244648      -14.997947       -0.585912
 H          -7.045626      -14.347465        0.833154
 H          -7.137110      -18.573544        0.223351
 H          -6.275427      -17.620092       -0.958336
 H          -8.118641      -16.391760       -0.163875
 H          -7.800089      -16.689909        1.529337
