20
 generated by VMD
 C         -10.532585      -39.998722       -6.917674
 N         -11.350658      -40.208336       -6.170787
 H         -13.678422      -40.703907       -8.881994
 H         -15.060196      -39.914234       -9.562517
 C         -14.683098      -40.887299       -9.281117
 C         -15.422486      -41.538998       -8.141173
 C         -14.654422      -41.748829      -10.556422
 C         -16.743622      -42.141712       -8.526908
 C         -16.061596      -42.097450      -10.976460
 C         -16.791559      -42.873341       -9.915392
 H         -15.528114      -40.785385       -7.373495
 H         -14.807734      -42.339863       -7.753344
 H         -14.175702      -41.188221      -11.340209
 H         -14.173985      -42.735641      -10.333614
 H         -17.460514      -41.318493       -8.581595
 H         -16.930670      -42.902103       -7.742903
 H         -15.943302      -42.730602      -11.947277
 H         -16.562809      -41.235081      -11.307060
 H         -17.832550      -43.073814      -10.195822
 H         -16.394226      -43.905006       -9.813183
