20
 generated by VMD
 C         -10.213269      -35.922188       -8.344776
 N         -10.104458      -35.292614       -9.234065
 H         -13.310025      -37.132736       -6.526258
 H         -14.681173      -37.887638       -5.766656
 C         -14.063957      -37.923843       -6.647595
 C         -13.133941      -39.152225       -6.576466
 C         -15.041253      -37.960308       -7.863425
 C         -13.856387      -40.489536       -6.858316
 C         -15.745383      -39.303204       -7.907536
 C         -14.800616      -40.473568       -8.069159
 H         -12.704337      -39.159565       -5.565980
 H         -12.342107      -39.052570       -7.297720
 H         -15.724836      -37.068649       -7.742282
 H         -14.452519      -37.798527       -8.764444
 H         -14.531325      -40.697269       -5.947235
 H         -13.143488      -41.286785       -6.992054
 H         -16.508564      -39.315533       -8.763975
 H         -16.300930      -39.386478       -7.005643
 H         -15.299588      -41.484421       -8.204665
 H         -14.204347      -40.260899       -8.964563
