20
 generated by VMD
 C         -69.358345     -185.053741      -66.629753
 N         -69.236038     -185.045181      -67.779335
 H         -69.324165     -183.158340      -63.341499
 H         -69.588226     -185.097595      -65.613503
 C         -69.248352     -183.316696      -62.289261
 C         -69.746475     -184.435883      -61.439655
 C         -68.228912     -182.447372      -61.512951
 C         -68.542648     -185.301193      -60.983177
 C         -66.956306     -183.417404      -61.318039
 C         -67.283875     -184.683319      -60.459255
 H         -70.511726     -184.989471      -61.959911
 H         -70.334221     -183.910294      -60.615875
 H         -67.828308     -181.635132      -62.107315
 H         -68.699753     -182.129822      -60.626617
 H         -68.326180     -185.932999      -61.912098
 H         -69.027100     -185.977997      -60.231815
 H         -66.186005     -182.832748      -60.719913
 H         -66.618240     -183.796371      -62.296337
 H         -66.521339     -185.355453      -60.423122
 H         -67.530853     -184.251343      -59.442181
