20
 generated by VMD
 C         -79.441704     -205.472092      -70.877457
 N         -80.552246     -205.730804      -71.209152
 H         -77.208588     -203.103531      -70.053604
 H         -78.338493     -205.142410      -70.857437
 C         -76.137657     -203.169479      -70.106247
 C         -75.345863     -201.972778      -70.179131
 C         -75.518303     -204.500259      -69.574631
 C         -73.900887     -202.249390      -70.514153
 C         -74.135307     -204.233917      -69.049110
 C         -73.209137     -203.524155      -69.977074
 H         -75.425034     -201.490540      -69.208656
 H         -75.652481     -201.243530      -70.933289
 H         -76.161613     -204.897720      -68.780807
 H         -75.351868     -205.209763      -70.392456
 H         -73.443924     -201.346573      -70.113792
 H         -73.726646     -202.065002      -71.593109
 H         -73.776764     -205.215469      -68.835060
 H         -74.173172     -203.662994      -68.050217
 H         -72.252106     -203.376678      -69.286835
 H         -72.972961     -204.250137      -70.786224
