20
 generated by VMD
 C         -32.666920      -92.911713      -25.816313
 N         -32.661072      -94.079765      -25.624338
 H         -33.910187      -95.075874      -28.778934
 H         -32.406570      -91.848450      -25.915613
 C         -34.213398      -94.077156      -29.088102
 C         -35.343430      -93.525154      -28.247469
 C         -33.788445      -93.217911      -30.279324
 C         -35.167431      -92.086502      -27.887564
 C         -33.530277      -91.709930      -29.832594
 C         -34.680653      -91.122917      -29.016672
 H         -35.443771      -94.224800      -27.284092
 H         -36.252594      -93.647285      -28.881901
 H         -32.808998      -93.573631      -30.591160
 H         -34.425243      -93.466347      -31.154934
 H         -34.545399      -91.913292      -27.019581
 H         -36.061302      -91.571175      -27.595013
 H         -33.376163      -91.191216      -30.814177
 H         -32.622566      -91.614525      -29.283218
 H         -34.284916      -90.109245      -28.774914
 H         -35.582882      -91.028221      -29.698690
