20
 generated by VMD
 C         -41.080288     -103.905655      -35.929474
 N         -41.789665     -104.844955      -35.954166
 H         -38.798462     -103.915680      -32.873306
 H         -40.307804     -103.186188      -35.919037
 C         -38.358067     -104.849792      -32.792828
 C         -36.944138     -105.239952      -32.409328
 C         -39.286423     -105.991791      -33.161488
 C         -36.810246     -106.089493      -31.252256
 C         -39.222134     -107.032318      -32.024323
 C         -37.710678     -107.363579      -31.478209
 H         -36.447323     -104.204819      -32.262733
 H         -36.506416     -105.707268      -33.322006
 H         -40.284882     -105.606438      -33.224037
 H         -39.029438     -106.411156      -34.148544
 H         -36.983566     -105.549133      -30.356960
 H         -35.872200     -106.543381      -31.100851
 H         -39.899132     -107.947639      -32.031574
 H         -39.613136     -106.484825      -31.186716
 H         -37.651737     -107.936607      -30.527128
 H         -37.245880     -108.031319      -32.190739
