20
 generated by VMD
 C         -24.587179      -70.030838      -16.438650
 N         -24.606661      -70.613678      -15.412536
 H         -23.586582      -67.399025      -19.070200
 H         -24.776119      -69.546890      -17.380505
 C         -24.293255      -68.060410      -19.622055
 C         -23.894510      -68.796555      -20.849764
 C         -25.784693      -67.755928      -19.550528
 C         -24.747234      -69.988777      -21.253456
 C         -26.606541      -69.061516      -19.929430
 C         -26.194208      -69.568779      -21.327990
 H         -22.817492      -69.313042      -20.674858
 H         -23.781641      -67.979813      -21.553772
 H         -25.978600      -67.504807      -18.495390
 H         -26.043322      -67.024696      -20.327635
 H         -24.410669      -70.822197      -20.627563
 H         -24.380581      -70.293961      -22.247908
 H         -27.712217      -68.934875      -20.037743
 H         -26.407980      -69.911850      -19.189804
 H         -26.764656      -70.499084      -21.568073
 H         -26.428551      -68.677246      -21.976791
