20
 generated by VMD
 C         -59.235138     -158.357971      -56.060333
 N         -58.913033     -158.547760      -57.101269
 H         -60.551723     -157.973465      -52.637180
 H         -59.564571     -158.144516      -55.054020
 C         -59.939793     -158.822525      -52.896149
 C         -58.552807     -158.707092      -52.761757
 C         -60.468994     -160.154175      -53.229397
 C         -58.202671     -159.586914      -51.667049
 C         -60.136436     -161.227402      -52.238411
 C         -58.591702     -161.070587      -51.946404
 H         -58.214844     -157.678589      -52.558914
 H         -58.022285     -159.141190      -53.654598
 H         -61.554497     -160.018539      -53.249252
 H         -60.258507     -160.540283      -54.199528
 H         -58.674541     -159.296066      -50.742641
 H         -57.053097     -159.457214      -51.407238
 H         -60.428799     -162.217163      -52.551258
 H         -60.671436     -161.052948      -51.274460
 H         -58.362503     -161.810867      -51.109505
 H         -58.118641     -161.635406      -52.857422
