20
 generated by VMD
 C         -41.892380     -101.503265      -32.880810
 N         -41.353436     -101.591766      -33.882710
 H         -38.774174     -103.899139      -32.511703
 H         -42.421459     -101.042282      -32.048176
 C         -37.850983     -103.377403      -32.212532
 C         -36.622967     -103.160019      -33.025196
 C         -37.643997     -103.666756      -30.569344
 C         -35.445591     -102.514977      -32.398563
 C         -36.424072     -102.927635      -30.078485
 C         -35.142609     -103.039032      -30.986628
 H         -36.885834     -102.724434      -33.977013
 H         -36.396160     -104.229820      -33.256016
 H         -38.666454     -103.412949      -30.163366
 H         -37.617439     -104.763557      -30.454573
 H         -35.598560     -101.470741      -32.347809
 H         -34.572304     -102.628647      -33.044266
 H         -35.954414     -103.253479      -29.112671
 H         -36.687454     -101.867348      -29.960831
 H         -34.388813     -102.523178      -30.371170
 H         -34.765614     -104.042336      -31.026814
