20
 generated by VMD
 C          -1.793616      -16.746414        2.858485
 N          -2.185838      -15.876999        2.282773
 H          -4.281669      -15.945664       -0.123942
 H          -4.531286      -17.192581       -1.371786
 C          -5.028040      -16.637751       -0.522292
 C          -6.373570      -15.876249       -0.865794
 C          -5.356637      -17.560640        0.694214
 C          -7.515011      -16.891272       -1.244411
 C          -6.420244      -18.556236        0.397146
 C          -7.682215      -17.897358       -0.136807
 H          -6.231647      -15.078714       -1.662225
 H          -6.669155      -15.287575       -0.011517
 H          -4.485462      -18.072786        0.908277
 H          -5.405301      -17.004827        1.569617
 H          -7.280499      -17.389246       -2.228101
 H          -8.421581      -16.318855       -1.420459
 H          -6.676791      -19.178318        1.266972
 H          -6.132082      -19.217302       -0.388582
 H          -8.426510      -18.646650       -0.394360
 H          -7.978420      -17.368347        0.782572
