20
 generated by VMD
 C         -50.284748     -128.825226      -43.509514
 N         -50.781662     -129.429611      -44.388603
 H         -48.821396     -128.294647      -40.581535
 H         -49.677773     -128.206253      -42.832500
 C         -47.752468     -128.168823      -40.431557
 C         -46.871765     -129.401611      -39.989983
 C         -47.076397     -126.871407      -40.729580
 C         -45.997608     -129.688599      -41.153294
 C         -46.212368     -127.235657      -41.953377
 C         -45.320461     -128.391434      -41.663937
 H         -47.372459     -130.319702      -39.690815
 H         -46.276981     -129.116150      -39.113136
 H         -47.807129     -126.182335      -40.982651
 H         -46.560619     -126.465591      -39.733620
 H         -46.615318     -130.040985      -41.935635
 H         -45.189209     -130.289490      -40.926674
 H         -45.492130     -126.369133      -42.144699
 H         -46.917606     -127.364517      -42.844082
 H         -44.719532     -128.602615      -42.535385
 H         -44.645977     -128.087234      -40.848427
