20
 generated by VMD
 C         -31.673677      -79.048058      -26.441488
 N         -30.934425      -78.167427      -26.693853
 H         -29.164574      -80.487167      -24.915697
 H         -32.217838      -80.055016      -26.348375
 C         -28.871138      -81.325417      -24.274101
 C         -27.612724      -81.290947      -23.279085
 C         -29.867249      -82.381050      -23.940008
 C         -28.050758      -81.259178      -21.894140
 C         -30.294111      -82.294205      -22.507856
 C         -29.197119      -82.230797      -21.540413
 H         -27.027397      -80.418953      -23.560760
 H         -27.112015      -82.272690      -23.490004
 H         -30.713308      -82.270996      -24.555895
 H         -29.478144      -83.440262      -24.037336
 H         -28.442787      -80.266167      -21.718864
 H         -27.141180      -81.383797      -21.172804
 H         -30.809013      -83.244423      -22.448486
 H         -31.026161      -81.555176      -22.258482
 H         -29.517971      -82.066704      -20.538069
 H         -28.842150      -83.192482      -21.500982
