20
 generated by VMD
 C         -38.507553     -111.401085      -36.216602
 N         -38.373207     -110.549644      -36.993576
 H         -40.351116     -114.529533      -34.883316
 H         -38.525795     -112.356064      -35.653362
 C         -41.420788     -114.226311      -35.153893
 C         -41.823338     -114.505310      -36.548813
 C         -42.159924     -113.330666      -34.265430
 C         -43.321774     -114.091125      -36.914135
 C         -43.597904     -113.137283      -34.693481
 C         -43.789413     -112.903946      -36.226238
 H         -41.663326     -115.597153      -36.741333
 H         -41.115410     -113.946434      -37.252251
 H         -42.340172     -113.681969      -33.234570
 H         -41.657089     -112.352089      -34.333893
 H         -43.836346     -114.997307      -36.609390
 H         -43.432594     -113.977333      -38.018059
 H         -43.994343     -112.320938      -34.190071
 H         -44.187855     -113.981667      -34.501301
 H         -44.963730     -112.724617      -36.245602
 H         -43.290665     -111.967072      -36.507393
