20
 generated by VMD
 C          -9.996672      -36.276619       -7.167497
 N         -10.086182      -36.782246       -8.131156
 H         -13.338407      -38.082397       -7.965363
 H         -14.560056      -38.573318       -6.784119
 C         -14.166879      -38.848679       -7.720093
 C         -13.529463      -40.278027       -7.650208
 C         -15.252620      -38.828411       -8.801358
 C         -14.584275      -41.485592       -7.491335
 C         -16.360384      -39.976166       -8.549667
 C         -15.689297      -41.340355       -8.521520
 H         -12.923362      -40.251534       -6.753040
 H         -13.016651      -40.541252       -8.560238
 H         -15.746472      -37.811440       -8.685818
 H         -14.813994      -38.951664       -9.816428
 H         -15.042130      -41.403057       -6.442657
 H         -14.050129      -42.433529       -7.653432
 H         -17.108662      -39.866653       -9.398190
 H         -16.883390      -39.711506       -7.667556
 H         -16.400946      -42.172268       -8.404018
 H         -15.180729      -41.535992       -9.471113
