20
 generated by VMD
 C         -48.867691     -140.886612      -45.349163
 N         -47.747150     -140.972168      -45.295574
 H         -51.543179     -138.241013      -46.016407
 H         -49.959698     -140.759796      -45.363941
 C         -52.102642     -139.170685      -46.201031
 C         -52.702347     -139.359863      -47.659836
 C         -52.822563     -139.804779      -45.016113
 C         -53.306870     -140.703857      -47.889088
 C         -53.701305     -141.082413      -45.397129
 C         -54.346848     -141.003571      -46.778519
 H         -51.863480     -139.230499      -48.378891
 H         -53.442375     -138.543549      -47.746433
 H         -52.135456     -140.049774      -44.231792
 H         -53.457573     -139.148651      -44.555397
 H         -52.436298     -141.409485      -47.956604
 H         -53.816822     -140.759232      -48.814232
 H         -54.455563     -141.179611      -44.653919
 H         -53.178761     -142.091385      -45.301430
 H         -54.949432     -141.931473      -46.834770
 H         -55.150837     -140.089615      -46.801739
