20
 generated by VMD
 C          -9.338253      -24.748060        0.861916
 N         -10.005143      -25.380545        1.495409
 H          -6.815942      -23.202314       -0.672629
 H          -8.226255      -22.615009       -1.456825
 C          -7.276429      -23.038525       -1.609877
 C          -7.422060      -24.347528       -2.342627
 C          -6.490815      -21.990870       -2.444543
 C          -8.055205      -24.239309       -3.756073
 C          -7.054653      -21.842236       -3.863698
 C          -7.305603      -23.195129       -4.616698
 H          -7.991989      -25.092241       -1.710426
 H          -6.460196      -24.769556       -2.637014
 H          -6.397625      -21.010897       -1.903822
 H          -5.481949      -22.394001       -2.450156
 H          -9.043381      -23.816408       -3.652689
 H          -8.065347      -25.195335       -4.213088
 H          -6.489084      -21.166996       -4.499195
 H          -8.005673      -21.359972       -3.698199
 H          -7.760527      -23.121450       -5.664488
 H          -6.284525      -23.557312       -4.866753
