20
 generated by VMD
 C         -69.057327     -194.863937      -65.422516
 N         -68.589996     -194.248047      -64.596413
 H         -71.322647     -194.235397      -67.979454
 H         -69.529106     -195.213287      -66.386093
 C         -72.003517     -193.665680      -67.408875
 C         -71.695114     -192.552338      -66.513947
 C         -73.356583     -194.276321      -67.141014
 C         -72.772324     -192.306427      -65.487198
 C         -74.477310     -193.249817      -67.072556
 C         -74.101189     -192.101593      -66.169632
 H         -71.344604     -191.709198      -67.102310
 H         -70.633896     -192.873566      -66.016808
 H         -73.679520     -194.963287      -67.907120
 H         -73.274094     -194.937790      -66.186935
 H         -72.522713     -191.366745      -64.865631
 H         -72.756035     -193.099625      -64.717049
 H         -75.359146     -193.713379      -66.665077
 H         -74.780617     -192.979340      -68.123260
 H         -74.016388     -191.344086      -66.824089
 H         -74.932022     -191.718414      -65.468430
