20
 generated by VMD
 C          -9.138320      -23.876957        2.355692
 N          -8.742464      -24.891886        2.553275
 H          -8.255538      -23.365326       -1.020824
 H          -9.008690      -22.673698       -2.306115
 C          -8.062025      -23.038418       -2.026130
 C          -7.637505      -24.157482       -2.977242
 C          -7.079352      -21.779612       -2.107882
 C          -7.473904      -23.633492       -4.440912
 C          -6.946745      -21.291962       -3.557273
 C          -6.502645      -22.448647       -4.520260
 H          -8.432508      -24.946434       -3.029946
 H          -6.635103      -24.576977       -2.752240
 H          -7.328752      -20.950686       -1.449255
 H          -6.096524      -22.140802       -1.773356
 H          -8.450526      -23.271393       -4.750182
 H          -7.004138      -24.448992       -5.037497
 H          -6.220985      -20.504026       -3.618175
 H          -7.916622      -20.908337       -3.907065
 H          -6.388841      -22.103939       -5.563564
 H          -5.430410      -22.775475       -4.241615
