20
 generated by VMD
 C         -47.985985     -134.531006      -47.082630
 N         -47.988094     -133.974396      -48.080990
 H         -49.890903     -134.450043      -44.665356
 H         -47.735901     -134.896759      -46.079384
 C         -50.423916     -135.273941      -44.156143
 C         -50.739456     -136.413773      -44.956707
 C         -51.162773     -135.071991      -42.828876
 C         -50.803848     -137.729187      -44.154263
 C         -51.258911     -136.370026      -42.051830
 C         -51.773342     -137.459305      -42.944134
 H         -50.061451     -136.637009      -45.729927
 H         -51.699272     -136.326706      -45.415554
 H         -50.645710     -134.383636      -42.269917
 H         -52.181881     -134.630569      -42.889236
 H         -49.727272     -138.008545      -43.893223
 H         -51.284073     -138.536850      -44.697906
 H         -51.954456     -136.099121      -41.167477
 H         -50.233250     -136.599670      -41.576115
 H         -52.134525     -138.432892      -42.456978
 H         -52.808327     -137.258835      -43.359505
