20
 generated by VMD
 C         -11.702144      -27.659449       -1.544053
 N         -11.971605      -26.587753       -1.745612
 H         -10.380980      -25.888184       -4.376368
 H          -9.065364      -25.693880       -5.381326
 C          -9.327211      -26.067049       -4.404017
 C          -9.027335      -27.545748       -4.178960
 C          -8.687646      -25.154474       -3.333245
 C          -7.574193      -27.819904       -4.098279
 C          -7.206403      -25.396538       -3.261080
 C          -6.826239      -26.895906       -3.122915
 H          -9.621328      -28.103279       -5.024231
 H          -9.550859      -27.981541       -3.351145
 H          -8.813919      -24.067753       -3.508883
 H          -9.169106      -25.254034       -2.349534
 H          -7.042264      -27.858835       -5.020104
 H          -7.423161      -28.834660       -3.769879
 H          -6.842853      -24.960438       -2.349392
 H          -6.673484      -24.877724       -4.062662
 H          -5.737508      -27.022722       -3.314751
 H          -6.974544      -27.254314       -2.107811
