20
 generated by VMD
 C         -49.346893     -141.345978      -45.801220
 N         -48.753899     -141.604431      -44.794647
 H         -51.616093     -138.471680      -46.159805
 H         -49.789948     -140.880142      -46.719021
 C         -52.246735     -139.290192      -46.391022
 C         -52.782276     -139.392502      -47.702244
 C         -52.831379     -140.007416      -45.144039
 C         -53.199467     -140.878082      -48.024715
 C         -53.287857     -141.343887      -45.589504
 C         -54.130638     -141.383621      -46.956841
 H         -52.167824     -139.076736      -48.529724
 H         -53.660751     -138.713593      -47.617626
 H         -52.072586     -140.017227      -44.372738
 H         -53.597771     -139.467270      -44.705006
 H         -52.207081     -141.380219      -48.055168
 H         -53.688950     -141.136292      -48.974777
 H         -53.622074     -141.850830      -44.689438
 H         -52.429039     -142.006378      -45.704628
 H         -54.444664     -142.489014      -47.054832
 H         -55.118008     -140.732040      -47.026524
