20
 generated by VMD
 C         -21.656332      -66.375496      -16.715164
 N         -20.886366      -66.842812      -15.956010
 H         -23.932447      -64.596657      -18.171736
 H         -22.474236      -65.784569      -17.052238
 C         -24.462757      -65.406487      -18.579151
 C         -24.387354      -65.800667      -20.025759
 C         -25.704294      -65.911926      -17.816507
 C         -24.285120      -67.261398      -20.130600
 C         -25.776373      -67.384232      -18.005356
 C         -25.482244      -67.899162      -19.432281
 H         -23.471537      -65.445099      -20.372595
 H         -25.221601      -65.345360      -20.542288
 H         -25.622345      -65.666382      -16.682354
 H         -26.661154      -65.381508      -18.143497
 H         -23.310163      -67.537048      -19.576675
 H         -24.171209      -67.689247      -21.172342
 H         -26.760252      -67.626816      -17.530272
 H         -24.993193      -67.865677      -17.379038
 H         -25.505663      -68.955101      -19.441706
 H         -26.402472      -67.607353      -20.009277
