20
 generated by VMD
 C         -44.747910     -122.442284      -36.067890
 N         -44.233734     -121.969177      -35.101311
 H         -45.142750     -122.804420      -39.535091
 H         -45.008213     -122.778809      -37.112617
 C         -44.944214     -121.699791      -39.469921
 C         -43.517197     -121.329239      -39.584198
 C         -46.065601     -120.735695      -39.454960
 C         -43.211514     -120.027908      -40.285164
 C         -45.732246     -119.471359      -40.290474
 C         -44.306808     -118.935402      -40.042133
 H         -42.984905     -122.243652      -39.975117
 H         -43.164520     -121.199257      -38.587448
 H         -46.918205     -121.282600      -39.924332
 H         -46.310211     -120.489647      -38.400154
 H         -43.379986     -120.170685      -41.404163
 H         -42.231480     -119.579185      -39.950802
 H         -46.458561     -118.691261      -39.917023
 H         -46.012047     -119.810928      -41.382366
 H         -44.178104     -117.994629      -40.479034
 H         -44.251621     -118.834312      -38.982857
