20
 generated by VMD
 C         -61.559265     -155.731506      -53.682369
 N         -61.676788     -155.049042      -54.579094
 H         -58.584419     -155.175720      -52.067883
 H         -61.433167     -156.339401      -52.831341
 C         -57.595592     -155.121704      -51.612217
 C         -57.337605     -154.397797      -50.289810
 C         -56.436546     -155.223831      -52.494019
 C         -56.118725     -154.917587      -49.513496
 C         -55.219902     -155.614182      -51.691479
 C         -54.900581     -154.887329      -50.469837
 H         -58.249912     -154.615005      -49.787369
 H         -57.213966     -153.304352      -50.208912
 H         -56.530781     -155.939362      -53.273289
 H         -56.177383     -154.278503      -53.062397
 H         -56.329464     -155.903397      -48.976387
 H         -55.860493     -154.269165      -48.694672
 H         -54.414181     -155.569031      -52.368202
 H         -55.240543     -156.718552      -51.406502
 H         -53.936382     -155.316681      -50.151604
 H         -54.790165     -153.849747      -50.828419
