20
 generated by VMD
 C         -60.957710     -155.053787      -53.148060
 N         -61.061066     -154.363449      -52.254959
 H         -58.022652     -154.187164      -52.575256
 H         -60.983036     -155.696411      -53.973698
 C         -57.144848     -154.236816      -51.953442
 C         -57.368580     -154.158035      -50.493000
 C         -55.833069     -153.818726      -52.565693
 C         -56.289490     -154.589340      -49.634449
 C         -54.671303     -154.160416      -51.565445
 C         -54.914433     -153.851593      -50.091438
 H         -58.265091     -154.822586      -50.263645
 H         -57.814854     -153.118454      -50.261280
 H         -55.695724     -154.409836      -53.539696
 H         -55.844193     -152.803329      -52.940701
 H         -56.191780     -155.733459      -49.735664
 H         -56.263168     -154.353104      -48.592541
 H         -53.666904     -153.651657      -51.828480
 H         -54.559017     -155.231720      -51.661243
 H         -54.129074     -154.046448      -49.436344
 H         -54.868034     -152.724777      -50.059273
