20
 generated by VMD
 C         -22.788872      -52.446915      -12.107645
 N         -23.565098      -52.437862      -11.217418
 H         -19.947161      -53.540424      -14.414646
 H         -21.961966      -52.322025      -12.540145
 C         -18.927980      -53.232468      -13.995550
 C         -18.182453      -52.098919      -14.545254
 C         -18.130142      -54.227436      -13.256075
 C         -16.662285      -52.312016      -14.533800
 C         -17.071985      -53.587402      -12.360435
 C         -16.273039      -52.431011      -13.071450
 H         -18.352510      -51.164345      -13.983509
 H         -18.539396      -52.001122      -15.540771
 H         -18.788105      -54.929447      -12.733930
 H         -17.530342      -54.830002      -13.993123
 H         -16.183472      -51.459488      -15.062970
 H         -16.482042      -53.217941      -15.148982
 H         -16.376768      -54.358372      -12.110044
 H         -17.491590      -53.212234      -11.365605
 H         -16.519983      -51.550976      -12.523254
 H         -15.219638      -52.702919      -13.087959
