20
 generated by VMD
 C         -41.534054     -119.638863      -34.300827
 N         -41.573357     -120.400093      -35.182701
 H         -43.260010     -118.540916      -36.840019
 H         -41.615597     -119.092026      -33.313583
 C         -43.784695     -118.399811      -37.742760
 C         -43.017193     -118.312309      -38.976456
 C         -45.143482     -117.784912      -37.795921
 C         -43.866264     -118.689026      -40.278461
 C         -45.933746     -118.118240      -39.103783
 C         -45.177563     -117.898697      -40.398727
 H         -42.180248     -119.012360      -38.842781
 H         -42.577484     -117.406097      -38.959873
 H         -45.888611     -118.060104      -36.967228
 H         -44.890987     -116.684372      -37.731976
 H         -43.992928     -119.753113      -40.299389
 H         -43.262951     -118.313042      -41.091492
 H         -46.844551     -117.437920      -39.069408
 H         -46.295528     -119.222275      -38.867043
 H         -45.930424     -118.307312      -41.126171
 H         -45.031113     -116.789963      -40.392143
