20
 generated by VMD
 C         -49.059986     -126.802063      -38.765781
 N         -49.908161     -127.490143      -38.414478
 H         -46.503262     -124.354019      -38.932800
 H         -48.263218     -126.173820      -39.213623
 C         -45.632511     -123.834099      -39.449135
 C         -44.532520     -124.764091      -39.780159
 C         -45.958351     -122.628151      -40.334290
 C         -43.847214     -124.643257      -41.210247
 C         -45.223415     -122.521248      -41.663033
 C         -43.936497     -123.189247      -41.710274
 H         -44.718872     -125.921257      -39.765652
 H         -43.768394     -124.717033      -39.004528
 H         -46.996109     -122.428116      -40.491810
 H         -45.684849     -121.751053      -39.730652
 H         -44.301064     -125.288185      -42.002464
 H         -42.803898     -125.026588      -41.137707
 H         -45.163963     -121.503578      -41.956799
 H         -45.773117     -122.828461      -42.540104
 H         -43.464222     -123.120789      -42.686623
 H         -43.263493     -122.649757      -41.062893
