20
 generated by VMD
 C         -11.263083      -38.405849       -7.614012
 N         -11.655852      -37.622078       -6.890088
 H         -12.600518      -41.798744       -8.974287
 H         -13.406558      -40.754322       -7.843980
 C         -13.604698      -41.357357       -8.695012
 C         -14.572638      -42.428726       -8.158027
 C         -14.242734      -40.586834       -9.828012
 C         -15.866083      -41.788429       -7.788004
 C         -15.702344      -40.129452       -9.689555
 C         -16.523867      -41.242512       -9.006748
 H         -14.062865      -43.066177       -7.400701
 H         -14.698078      -43.155445       -8.984347
 H         -13.550374      -39.738697      -10.124190
 H         -14.170337      -41.230988      -10.733047
 H         -15.756213      -41.013607       -7.040721
 H         -16.598879      -42.504070       -7.327266
 H         -16.201403      -39.925262      -10.583063
 H         -15.672126      -39.233738       -8.981991
 H         -17.451134      -40.802292       -8.690896
 H         -16.690683      -41.988277       -9.768350
