20
 generated by VMD
 C         -66.422020     -189.665985      -66.723000
 N         -66.386963     -189.153351      -67.781487
 H         -69.762711     -190.064529      -65.080032
 H         -66.332939     -190.227722      -65.754456
 C         -70.516075     -189.751312      -64.323448
 C         -71.723236     -190.620209      -64.072960
 C         -70.523903     -188.415985      -63.679581
 C         -73.079201     -189.916031      -63.850101
 C         -71.792503     -187.602402      -63.778664
 C         -72.895958     -188.516510      -63.142433
 H         -71.462990     -191.254700      -63.257988
 H         -71.803207     -191.343124      -64.803169
 H         -70.155556     -188.570251      -62.665401
 H         -69.784721     -187.920731      -64.160957
 H         -73.791481     -190.555786      -63.329609
 H         -73.428436     -189.638260      -64.886322
 H         -72.122757     -187.436752      -64.875191
 H         -71.559090     -186.637253      -63.293827
 H         -72.678902     -188.684967      -62.060768
 H         -73.791321     -188.033646      -63.070290
