20
 generated by VMD
 C         -72.839066     -198.931732      -65.618301
 N         -73.819534     -199.414185      -65.988976
 H         -71.015305     -196.279099      -67.459785
 H         -71.881897     -198.373749      -65.540001
 C         -72.086693     -196.459518      -67.636345
 C         -73.091896     -195.638290      -66.944176
 C         -72.457115     -196.972504      -69.036942
 C         -74.259193     -195.231522      -67.792213
 C         -73.884430     -197.409500      -69.246384
 C         -74.859024     -196.541855      -68.424751
 H         -72.481674     -194.768921      -66.749489
 H         -73.434586     -195.960251      -65.984749
 H         -72.147781     -196.246674      -69.835556
 H         -71.762939     -197.833801      -69.342278
 H         -73.927841     -194.438492      -68.524590
 H         -75.043106     -194.860229      -67.140388
 H         -74.127640     -198.416565      -68.961914
 H         -74.086983     -197.332535      -70.359344
 H         -75.640663     -196.013550      -69.130814
 H         -75.194969     -197.096771      -67.650566
