20
 generated by VMD
 C         -78.750687     -207.874161      -76.688667
 N         -78.628021     -207.956451      -75.550430
 H         -79.416924     -209.971725      -73.362984
 H         -78.960892     -207.871170      -77.711617
 C         -78.749115     -210.159195      -72.481041
 C         -77.410889     -209.573685      -72.260078
 C         -79.089943     -211.340729      -71.458755
 C         -77.146996     -209.136307      -70.814598
 C         -78.613029     -211.136948      -70.053246
 C         -77.305832     -210.407181      -70.081276
 H         -77.388008     -208.618103      -72.819077
 H         -76.595749     -210.237839      -72.603516
 H         -80.138695     -211.433228      -71.581909
 H         -78.619492     -212.294250      -71.778671
 H         -77.904114     -208.400101      -70.567688
 H         -76.129166     -208.751999      -70.709641
 H         -78.494713     -212.005783      -69.359352
 H         -79.455650     -210.571335      -69.640579
 H         -77.239227     -210.000656      -69.060333
 H         -76.540062     -211.240509      -70.135635
