20
 generated by VMD
 C         -78.736534     -209.266312      -76.838432
 N         -79.767868     -208.703339      -77.006294
 H         -77.949852     -209.012787      -72.952072
 H         -77.830070     -209.910950      -76.811859
 C         -78.078300     -209.829239      -72.247643
 C         -76.911758     -210.134125      -71.384941
 C         -79.184410     -210.877823      -72.481308
 C         -77.355545     -210.618958      -70.059525
 C         -79.507751     -211.639740      -71.141525
 C         -78.219116     -211.892380      -70.273689
 H         -76.349106     -209.215302      -71.271027
 H         -76.145554     -210.771042      -71.907852
 H         -80.098282     -210.285690      -72.660187
 H         -78.915886     -211.454483      -73.317497
 H         -78.002785     -209.826813      -69.642990
 H         -76.525383     -210.685715      -69.340340
 H         -80.095192     -212.648193      -71.501144
 H         -80.110359     -211.102585      -70.493004
 H         -78.471748     -212.472107      -69.393700
 H         -77.520195     -212.568848      -70.776382
