20
 generated by VMD
 C         -28.040157      -86.328133      -26.194876
 N         -28.065226      -87.108673      -27.038284
 H         -31.047733      -86.758568      -25.310234
 H         -28.100641      -85.454567      -25.486519
 C         -31.951262      -87.245308      -25.642385
 C         -32.928326      -87.741737      -24.549044
 C         -32.119255      -87.693771      -27.105711
 C         -34.358006      -87.570297      -25.069458
 C         -33.476284      -87.466034      -27.460917
 C         -34.514198      -88.071281      -26.544823
 H         -32.717838      -87.197281      -23.665730
 H         -32.696751      -88.776901      -24.272528
 H         -31.428411      -87.115692      -27.732605
 H         -31.885782      -88.754295      -27.172686
 H         -34.765221      -86.526886      -25.131311
 H         -35.121468      -88.127670      -24.496359
 H         -33.647438      -88.052780      -28.373976
 H         -33.664162      -86.443802      -27.682835
 H         -35.531441      -87.804848      -26.766697
 H         -34.470249      -89.147820      -26.449026
