20
 generated by VMD
 C          -2.259087      -17.925148        2.305489
 N          -1.720595      -17.025154        2.690009
 H          -5.252726      -17.956583        0.985140
 H          -5.084300      -19.087151       -0.269007
 C          -5.760872      -18.352411        0.096046
 C          -6.079268      -17.203768       -0.860360
 C          -7.069375      -19.009178        0.528102
 C          -6.801404      -17.669123       -2.200090
 C          -7.906135      -19.401791       -0.677814
 C          -8.116441      -18.395905       -1.801489
 H          -5.083386      -16.755804       -1.121524
 H          -6.687850      -16.374756       -0.483154
 H          -6.917229      -19.891912        1.228087
 H          -7.660680      -18.343863        1.157034
 H          -6.161840      -18.315435       -2.759209
 H          -6.941269      -16.852243       -2.879829
 H          -8.941027      -19.693663       -0.372628
 H          -7.470430      -20.334097       -1.061812
 H          -8.538655      -18.872076       -2.684329
 H          -8.907766      -17.691011       -1.479739
