20
 generated by VMD
 C         -73.954613     -200.791534      -65.455132
 N         -72.846222     -201.126511      -65.301865
 H         -73.973907     -197.876465      -66.444939
 H         -75.008118     -200.715927      -65.727249
 C         -73.919876     -197.517029      -67.461395
 C         -74.406448     -196.099304      -67.531029
 C         -73.379333     -198.119171      -68.677246
 C         -73.539719     -195.311996      -68.444809
 C         -73.732735     -197.425323      -69.968330
 C         -73.666176     -195.867279      -69.939857
 H         -74.269760     -195.705139      -66.579926
 H         -75.534500     -196.188705      -67.776474
 H         -72.287071     -198.119110      -68.530396
 H         -73.606346     -199.193115      -68.758575
 H         -72.542831     -195.379318      -68.020706
 H         -73.788979     -194.240738      -68.276955
 H         -74.786095     -197.701691      -70.281410
 H         -73.064247     -197.703018      -70.762321
 H         -72.793510     -195.434082      -70.573982
 H         -74.486168     -195.430008      -70.424339
