20
 generated by VMD
 C         -19.224689      -62.625843      -17.314714
 N         -20.255447      -62.549171      -16.752810
 H         -22.243876      -64.326469      -16.862507
 H         -18.457884      -62.820137      -18.107880
 C         -23.299685      -64.502388      -17.221546
 C         -23.751945      -64.092377      -18.570360
 C         -24.409103      -65.106285      -16.239967
 C         -24.604626      -65.178223      -19.120071
 C         -25.092718      -66.266129      -16.906218
 C         -25.724340      -65.806602      -18.247051
 H         -22.903807      -63.873997      -19.150270
 H         -24.403522      -63.289219      -18.313324
 H         -24.030682      -65.508896      -15.367747
 H         -25.231951      -64.384796      -16.018764
 H         -23.893202      -65.957794      -19.420710
 H         -24.951029      -64.855286      -20.150045
 H         -25.761278      -66.802635      -16.246580
 H         -24.303617      -67.016502      -17.209240
 H         -25.921741      -66.738625      -18.769199
 H         -26.758104      -65.308487      -18.159252
