20
 generated by VMD
 C         -66.540436     -177.922760      -56.954147
 N         -67.698997     -178.072189      -56.929516
 H         -64.430885     -176.196869      -59.446533
 H         -65.449951     -177.774445      -56.822845
 C         -64.358925     -175.035370      -59.659950
 C         -65.494400     -174.175766      -59.234642
 C         -63.133194     -174.501312      -60.362553
 C         -65.217888     -172.779327      -59.226288
 C         -63.028316     -172.986328      -60.397472
 C         -64.369606     -172.260590      -60.405537
 H         -66.038002     -174.512543      -58.380444
 H         -66.297600     -174.330811      -60.014660
 H         -62.270939     -174.960190      -59.963978
 H         -63.184769     -175.009155      -61.341656
 H         -64.673370     -172.599365      -58.276917
 H         -66.114906     -172.127380      -59.236916
 H         -62.363388     -172.491913      -61.146587
 H         -62.493999     -172.815948      -59.443668
 H         -64.125755     -171.122955      -60.307781
 H         -64.963959     -172.365448      -61.358761
