20
 generated by VMD
 C         -30.323055      -79.568977      -26.015566
 N         -30.955576      -78.577888      -26.130772
 H         -28.465569      -82.499855      -25.843952
 H         -29.838667      -80.426300      -25.530956
 C         -28.888321      -82.381981      -24.770288
 C         -28.085451      -81.690994      -23.599558
 C         -30.029646      -83.372429      -24.266508
 C         -28.952772      -81.287338      -22.386414
 C         -30.800020      -82.842216      -23.026314
 C         -29.960112      -82.341759      -21.857393
 H         -27.576677      -80.769287      -23.929865
 H         -27.327417      -82.515381      -23.330444
 H         -30.648794      -83.545219      -25.104315
 H         -29.651518      -84.330841      -23.981686
 H         -29.389286      -80.347450      -22.907681
 H         -28.380692      -80.851631      -21.578939
 H         -31.384008      -83.606323      -22.657831
 H         -31.523302      -82.114326      -23.426506
 H         -30.546474      -81.948563      -21.083035
 H         -29.628548      -83.213272      -21.318779
