20
 generated by VMD
 C         -39.516083     -105.586868      -37.079647
 N         -40.561352     -106.009583      -37.278435
 H         -38.829601     -108.432549      -35.331470
 H         -38.611694     -104.990395      -37.022579
 C         -39.307827     -108.513924      -34.320637
 C         -38.451565     -108.872643      -33.264526
 C         -40.689411     -109.233536      -34.331821
 C         -39.029770     -108.981102      -31.871445
 C         -41.285957     -109.342728      -32.939255
 C         -40.244141     -110.035301      -31.956978
 H         -37.649662     -107.997353      -33.312599
 H         -37.869522     -109.799248      -33.606709
 H         -41.329342     -108.685310      -34.958370
 H         -40.429531     -110.139534      -34.903088
 H         -39.416180     -108.033669      -31.598959
 H         -38.371948     -109.237129      -31.046738
 H         -42.209576     -109.947289      -33.035389
 H         -41.503651     -108.374229      -32.510342
 H         -40.850063     -110.167236      -30.937920
 H         -40.027004     -111.025398      -32.322788
