20
 generated by VMD
 C         -41.057056     -104.403839      -35.803123
 N         -41.997253     -104.879349      -36.252480
 H         -37.938854     -104.109123      -33.561680
 H         -40.337238     -103.697006      -35.367714
 C         -38.075741     -105.008934      -32.990807
 C         -36.895847     -105.399529      -32.183861
 C         -39.316048     -105.933136      -33.225010
 C         -37.055752     -106.384201      -31.066900
 C         -39.342701     -107.052666      -32.172646
 C         -37.908810     -107.473488      -31.768290
 H         -36.568508     -104.499931      -31.765940
 H         -36.177547     -105.606812      -32.971958
 H         -40.299911     -105.465355      -33.225025
 H         -39.103989     -106.406868      -34.228378
 H         -37.642315     -105.976685      -30.175451
 H         -36.173485     -107.005760      -30.825857
 H         -39.948093     -107.920105      -32.400917
 H         -39.737957     -106.727242      -31.149443
 H         -37.895149     -108.314850      -31.010401
 H         -37.349613     -107.822250      -32.647797
