20
 generated by VMD
 C         -78.385849     -209.563080      -76.978653
 N         -78.525787     -208.980713      -77.949585
 H         -78.988625     -210.683990      -73.526001
 H         -78.148064     -210.182632      -76.066353
 C         -78.908875     -211.606964      -72.975700
 C         -77.707817     -212.088547      -72.207642
 C         -80.082130     -212.530289      -72.893753
 C         -78.267616     -212.237457      -70.624130
 C         -80.471672     -213.114655      -71.428650
 C         -79.292458     -213.309357      -70.462196
 H         -76.761116     -211.471909      -72.176208
 H         -77.360603     -213.058563      -72.639458
 H         -80.934418     -211.992874      -73.332024
 H         -79.813904     -213.455276      -73.381058
 H         -78.583946     -211.375046      -70.075066
 H         -77.326828     -212.546875      -70.165230
 H         -81.074677     -214.067093      -71.601845
 H         -81.336746     -212.402634      -70.984383
 H         -79.558098     -213.471222      -69.399803
 H         -78.922188     -214.328735      -70.683998
