20
 generated by VMD
 C         -42.123459     -120.394470      -34.861534
 N         -42.460510     -121.281441      -34.164997
 H         -43.711559     -120.235023      -37.549870
 H         -42.030750     -119.426643      -35.339901
 C         -44.004349     -119.482941      -38.343769
 C         -43.095692     -119.003662      -39.490925
 C         -45.236130     -118.673714      -38.091774
 C         -43.864525     -118.869324      -40.758015
 C         -46.061611     -118.550896      -39.368668
 C         -45.185947     -118.104393      -40.535854
 H         -42.318550     -119.807556      -39.509075
 H         -42.643841     -117.979378      -39.102348
 H         -45.617279     -119.044746      -37.118896
 H         -44.915302     -117.628426      -37.807899
 H         -43.991875     -119.861572      -41.204109
 H         -43.253998     -118.305595      -41.566471
 H         -46.880703     -117.986267      -39.189594
 H         -46.346081     -119.559753      -39.621193
 H         -45.814724     -118.077286      -41.478226
 H         -44.776409     -117.117882      -40.270107
