20
 generated by VMD
 C         -41.462193     -120.144653      -33.952114
 N         -41.957760     -120.973770      -34.597198
 H         -43.464142     -119.201210      -37.189796
 H         -40.965279     -119.338249      -33.535072
 C         -43.934750     -118.827759      -38.072559
 C         -43.101528     -118.625114      -39.314838
 C         -45.263912     -118.090225      -38.052216
 C         -43.970608     -118.708305      -40.609692
 C         -46.032269     -118.346634      -39.354805
 C         -45.235088     -117.977928      -40.639862
 H         -42.265884     -119.405396      -39.415508
 H         -42.745380     -117.599625      -39.237427
 H         -45.820820     -118.486153      -37.087528
 H         -45.352188     -117.023308      -37.988796
 H         -44.246529     -119.735115      -40.751480
 H         -43.360397     -118.471909      -41.532093
 H         -46.976349     -117.865326      -39.260452
 H         -46.330341     -119.450729      -39.457821
 H         -45.950783     -117.980186      -41.465290
 H         -45.030056     -116.912109      -40.586514
