20
 generated by VMD
 C         -39.805668     -105.418259      -37.231983
 N         -40.090889     -104.332535      -36.971920
 H         -39.586769     -108.547104      -35.438583
 H         -39.418377     -106.386833      -37.532242
 C         -39.647125     -108.499413      -34.372166
 C         -38.446198     -108.179924      -33.502110
 C         -40.432652     -109.756439      -33.849895
 C         -38.850269     -108.099129      -32.025490
 C         -40.900452     -109.489845      -32.410385
 C         -39.666759     -109.238174      -31.424904
 H         -37.942028     -107.264748      -33.847862
 H         -37.724621     -109.013130      -33.652748
 H         -41.389988     -110.090729      -34.318996
 H         -39.703171     -110.637894      -33.832500
 H         -39.325237     -107.071991      -31.748436
 H         -37.841881     -108.150467      -31.540113
 H         -41.396538     -110.385033      -32.224857
 H         -41.615299     -108.677765      -32.387066
 H         -40.062637     -109.048210      -30.466095
 H         -39.086330     -110.274284      -31.376881
