20
 generated by VMD
 C         -31.007891      -77.613701      -25.301552
 N         -31.996794      -77.082130      -25.520830
 H         -29.408192      -77.191788      -22.596199
 H         -30.315069      -78.137833      -24.783285
 C         -28.586582      -77.771599      -22.203579
 C         -27.457016      -78.052429      -23.200129
 C         -29.051653      -78.858292      -21.364494
 C         -26.294529      -78.762932      -22.523390
 C         -27.866676      -79.679756      -20.860994
 C         -26.789068      -80.044174      -21.895504
 H         -27.127909      -77.041771      -23.555799
 H         -27.842937      -78.847725      -23.901278
 H         -29.470938      -78.454163      -20.488272
 H         -29.754318      -79.590912      -21.840965
 H         -25.742598      -78.125687      -21.795345
 H         -25.485535      -78.942444      -23.248636
 H         -28.404949      -80.597603      -20.521481
 H         -27.466543      -79.291687      -19.916098
 H         -26.006195      -80.673431      -21.501038
 H         -27.190399      -80.796677      -22.612970
