20
 generated by VMD
 C         -29.490269      -90.806816      -25.105257
 N         -28.991817      -91.820396      -25.072586
 H         -32.231972      -91.441017      -27.440121
 H         -30.123980      -89.877113      -25.190140
 C         -33.100353      -90.742714      -27.613634
 C         -34.330582      -91.587234      -27.454033
 C         -33.145428      -89.531197      -28.546391
 C         -35.559460      -90.694405      -27.442139
 C         -34.392456      -88.770584      -28.779253
 C         -35.636311      -89.735970      -28.586561
 H         -34.341816      -92.256668      -26.545292
 H         -34.376694      -92.191147      -28.345459
 H         -32.324326      -88.821999      -28.278526
 H         -32.904472      -89.865654      -29.577196
 H         -35.475876      -90.253448      -26.489735
 H         -36.496395      -91.295929      -27.353449
 H         -34.393574      -88.307159      -29.791752
 H         -34.532127      -88.060112      -27.967278
 H         -36.505032      -89.161896      -28.311907
 H         -35.662952      -90.252998      -29.533987
