20
 generated by VMD
 C         -50.674618     -129.980072      -45.076351
 N         -51.373074     -129.221603      -44.636990
 H         -48.842567     -129.407974      -42.902637
 H         -49.926254     -130.506882      -45.658852
 C         -48.204903     -129.566238      -42.019600
 C         -47.956799     -130.984161      -41.566422
 C         -47.500401     -128.403976      -41.521191
 C         -46.520187     -131.282776      -41.194374
 C         -45.999977     -128.643738      -41.251179
 C         -45.899288     -129.952118      -40.459671
 H         -48.309483     -131.622498      -42.351013
 H         -48.685501     -131.218277      -40.648598
 H         -47.422421     -127.551369      -42.230789
 H         -47.866505     -128.055283      -40.598125
 H         -45.851578     -131.433960      -42.104721
 H         -46.407387     -132.035416      -40.325165
 H         -45.476711     -127.902000      -40.749428
 H         -45.455242     -128.741669      -42.197433
 H         -44.887760     -130.166168      -40.147667
 H         -46.421555     -129.998779      -39.460087
