20
 generated by VMD
 C         -77.087959     -203.620987      -66.864067
 N         -77.886696     -204.244186      -66.288063
 H         -75.847862     -200.473633      -68.828217
 H         -76.276176     -203.013062      -67.115311
 C         -74.863220     -200.026306      -69.049408
 C         -74.741463     -198.590469      -68.651588
 C         -73.731682     -200.749039      -69.676720
 C         -73.424080     -198.000610      -69.088081
 C         -72.833893     -199.864395      -70.600960
 C         -73.147835     -198.370331      -70.588013
 H         -74.938538     -198.419876      -67.577332
 H         -75.420990     -197.983002      -69.202026
 H         -73.232651     -201.418167      -68.900436
 H         -74.089027     -201.569077      -70.339157
 H         -72.582275     -198.267197      -68.415848
 H         -73.660927     -196.888412      -69.085945
 H         -72.951920     -200.205505      -71.637733
 H         -71.778435     -199.939850      -70.351608
 H         -72.213623     -197.840866      -71.079308
 H         -73.969261     -198.085510      -71.286743
