20
 generated by VMD
 C         -48.770676     -133.164719      -47.194065
 N         -48.159470     -133.240021      -48.185780
 H         -48.631840     -134.633591      -43.998268
 H         -49.489307     -133.479675      -46.408985
 C         -49.622917     -134.971313      -43.794270
 C         -49.880840     -136.282532      -44.473709
 C         -50.731220     -134.326538      -42.888908
 C         -50.371540     -137.292816      -43.435619
 C         -51.158966     -135.369293      -41.833717
 C         -51.425262     -136.754654      -42.416752
 H         -49.008526     -136.498169      -45.037697
 H         -50.680904     -135.964508      -45.240429
 H         -50.288177     -133.438858      -42.369347
 H         -51.571503     -133.950836      -43.597855
 H         -49.530331     -137.691895      -42.846886
 H         -50.779827     -138.121521      -44.040359
 H         -51.991119     -135.090286      -41.294266
 H         -50.458130     -135.594498      -41.094837
 H         -51.403210     -137.490448      -41.572079
 H         -52.380993     -136.774475      -42.919903
