20
 generated by VMD
 C         -11.473263      -41.967442       -6.138666
 N         -10.960214      -41.314167       -6.909367
 H         -14.505529      -40.993198       -8.480379
 H         -15.535524      -40.431190       -9.760389
 C         -15.274861      -41.341148       -9.200055
 C         -16.567463      -41.939869       -8.676346
 C         -14.583945      -42.315006      -10.177803
 C         -17.511560      -42.474209       -9.803106
 C         -15.521135      -42.978409      -11.194701
 C         -16.778788      -43.555737      -10.557487
 H         -17.119345      -41.215584       -8.131944
 H         -16.336788      -42.768406       -8.022716
 H         -13.827629      -41.793777      -10.754313
 H         -14.181226      -43.086231       -9.541449
 H         -17.648304      -41.571316      -10.444053
 H         -18.427786      -42.911587       -9.359164
 H         -14.941960      -43.705990      -11.757545
 H         -15.805959      -42.213066      -11.994802
 H         -17.454811      -43.982067      -11.317778
 H         -16.566298      -44.461514       -9.900675
