20
 generated by VMD
 C         -57.824768     -164.864044      -56.502693
 N         -57.245487     -164.120041      -57.208851
 H         -59.891712     -164.844391      -54.360203
 H         -58.282124     -165.595261      -55.831429
 C         -60.982407     -164.961777      -54.691978
 C         -61.937748     -165.756302      -53.875511
 C         -61.465664     -164.223434      -55.793194
 C         -63.442890     -165.683945      -54.179634
 C         -62.977871     -163.861008      -55.777538
 C         -63.731499     -165.156372      -55.565742
 H         -61.700272     -165.665848      -52.843079
 H         -61.653969     -166.829865      -54.080002
 H         -60.888428     -163.222763      -55.882832
 H         -61.381321     -164.693939      -56.748913
 H         -63.834103     -164.908752      -53.431850
 H         -63.970943     -166.714203      -54.078232
 H         -63.435814     -163.437485      -56.829182
 H         -63.272732     -163.106018      -55.078400
 H         -64.741348     -165.028229      -55.657269
 H         -63.327499     -165.915482      -56.160469
