20
 generated by VMD
 C         -41.557384     -102.343956      -34.305904
 N         -41.064022     -101.824692      -35.183083
 H         -39.516136     -104.188354      -32.645588
 H         -42.043259     -102.817604      -33.398041
 C         -38.497303     -104.236412      -32.084549
 C         -37.306198     -103.876030      -32.964737
 C         -38.277481     -105.063599      -30.844402
 C         -36.166553     -103.334000      -32.206036
 C         -36.858906     -104.884491      -30.321501
 C         -35.755623     -104.454140      -31.284014
 H         -37.806755     -103.091156      -33.559708
 H         -36.906528     -104.553688      -33.764702
 H         -39.149174     -104.789986      -30.129982
 H         -38.390587     -106.103416      -31.114475
 H         -36.357162     -102.489777      -31.546061
 H         -35.351036     -103.089813      -32.867504
 H         -36.529774     -105.915680      -29.838556
 H         -36.831490     -104.136116      -29.527163
 H         -34.866955     -104.228561      -30.656759
 H         -35.409073     -105.289154      -31.842829
