20
 generated by VMD
 C         -46.284847     -124.274414      -35.835514
 N         -46.844475     -125.228401      -35.551815
 H         -44.579540     -121.911934      -38.015759
 H         -45.932472     -123.443451      -36.321640
 C         -44.596695     -121.578133      -39.026489
 C         -43.228073     -121.428551      -39.775547
 C         -45.687046     -120.763618      -39.551273
 C         -43.517921     -121.679970      -41.292778
 C         -45.912491     -120.928238      -41.094463
 C         -44.615665     -120.856209      -41.871971
 H         -42.379078     -122.062958      -39.452919
 H         -42.830181     -120.474976      -39.588005
 H         -46.600594     -120.890251      -39.029697
 H         -45.223831     -119.748215      -39.317276
 H         -43.670212     -122.711533      -41.509602
 H         -42.602913     -121.645271      -41.983074
 H         -46.688236     -120.225510      -41.437160
 H         -46.271751     -121.908119      -41.086685
 H         -44.834003     -121.121712      -42.929932
 H         -44.338020     -119.865761      -41.791695
