20
 generated by VMD
 C         -55.979271     -149.199539      -45.852837
 N         -55.724014     -150.111069      -45.150982
 H         -53.947334     -147.852356      -47.857014
 H         -56.178497     -148.323471      -46.409836
 C         -54.141720     -147.363785      -48.807400
 C         -53.141987     -147.442505      -49.821991
 C         -54.793137     -146.141983      -48.564667
 C         -53.533974     -146.762955      -51.092743
 C         -55.247005     -145.418945      -49.806396
 C         -54.127575     -145.447647      -50.948700
 H         -52.982712     -148.423691      -50.067467
 H         -52.177975     -147.069656      -49.485279
 H         -55.617279     -146.340195      -47.887161
 H         -54.199959     -145.460526      -47.918213
 H         -54.255959     -147.486130      -51.582291
 H         -52.716755     -146.681992      -51.797283
 H         -55.314800     -144.359406      -49.467865
 H         -56.149250     -145.855988      -50.220921
 H         -54.543453     -144.994888      -51.897636
 H         -53.396484     -144.778091      -50.513577
