20
 generated by VMD
 C         -21.951437      -55.515633      -17.542154
 N         -21.105824      -55.793571      -18.257811
 H         -21.607765      -56.964928      -14.234076
 H         -22.738161      -55.143894      -17.020649
 C         -21.469357      -58.017391      -14.317031
 C         -21.396040      -58.804646      -13.135986
 C         -21.275578      -58.781433      -15.652345
 C         -20.977329      -60.262074      -13.354193
 C         -20.308897      -59.945156      -15.686970
 C         -19.790876      -60.415398      -14.313322
 H         -22.396982      -58.780334      -12.604511
 H         -20.683937      -58.269238      -12.457039
 H         -22.176535      -59.182472      -16.034235
 H         -20.963354      -58.054096      -16.421942
 H         -21.793749      -60.864277      -13.756639
 H         -20.812183      -60.700058      -12.374224
 H         -19.491535      -59.652618      -16.311625
 H         -20.691605      -60.751179      -16.301455
 H         -19.294048      -61.390934      -14.372977
 H         -19.091984      -59.651627      -14.003361
