20
 generated by VMD
 C         -78.680374     -210.117126      -76.504585
 N         -77.614914     -210.318344      -76.976845
 H         -79.513893     -211.963470      -74.524773
 H         -79.642982     -209.835251      -76.037514
 C         -79.511627     -212.312576      -73.529343
 C         -78.206413     -212.414536      -72.872093
 C         -80.775505     -213.106186      -73.115173
 C         -78.368500     -212.713562      -71.395744
 C         -80.805420     -213.477646      -71.620659
 C         -79.433273     -213.813522      -71.210884
 H         -77.636314     -211.498383      -72.969421
 H         -77.580917     -213.134689      -73.342300
 H         -81.708328     -212.541885      -73.384697
 H         -80.724190     -214.032486      -73.588478
 H         -78.604805     -211.843643      -70.743324
 H         -77.303917     -212.903290      -71.076675
 H         -81.515579     -214.368866      -71.569496
 H         -81.495705     -212.795425      -71.067932
 H         -79.437782     -214.213058      -70.219887
 H         -79.218391     -214.811447      -71.762352
