20
 generated by VMD
 C         -33.614140      -96.430374      -25.320700
 N         -32.735611      -97.005249      -24.754417
 H         -34.839134      -93.413147      -27.384588
 H         -34.385796      -95.858574      -25.648941
 C         -34.790432      -93.410316      -28.477068
 C         -36.028267      -93.776375      -29.192335
 C         -33.519093      -93.272606      -29.199615
 C         -36.303101      -93.032814      -30.454018
 C         -33.717072      -92.507889      -30.568697
 C         -34.995506      -92.933868      -31.335497
 H         -36.882027      -93.873856      -28.589523
 H         -35.730877      -94.818398      -29.430897
 H         -32.836224      -92.771454      -28.562807
 H         -33.020065      -94.226860      -29.422606
 H         -36.634117      -92.072540      -30.053919
 H         -37.216938      -93.371902      -30.979124
 H         -32.840607      -92.756836      -31.072153
 H         -33.841408      -91.377373      -30.476938
 H         -34.948860      -92.318298      -32.357552
 H         -34.853531      -93.944214      -31.634895
