20
 generated by VMD
 C         -40.387157     -100.996056      -32.296829
 N         -41.148472     -100.850143      -31.457468
 H         -37.971344     -103.357292      -32.448257
 H         -39.602554     -101.237221      -33.059887
 C         -37.212788     -102.776405      -31.901503
 C         -36.124554     -102.431473      -32.869297
 C         -37.192249     -102.432472      -30.522655
 C         -35.276791     -101.303200      -32.412006
 C         -36.520653     -101.124260      -30.251812
 C         -35.180759     -101.201317      -30.865896
 H         -36.656139     -102.178047      -33.855236
 H         -35.553547     -103.353928      -33.132153
 H         -38.170986     -102.290855      -30.161335
 H         -36.743454     -103.252235      -29.878386
 H         -35.792095     -100.375847      -32.751270
 H         -34.324043     -101.396576      -33.059971
 H         -36.444962     -100.871780      -29.145744
 H         -37.125252     -100.353668      -30.627678
 H         -34.671898     -100.284874      -30.525387
 H         -34.599464     -102.090630      -30.472948
