20
 generated by VMD
 C         -59.927166     -152.996017      -51.120506
 N         -60.659241     -152.296646      -51.723587
 H         -57.058125     -153.410934      -49.522442
 H         -59.190929     -153.678116      -50.698574
 C         -56.206390     -152.765884      -49.739822
 C         -54.850872     -153.119553      -49.475315
 C         -56.479355     -151.424210      -50.290344
 C         -53.867306     -152.512115      -50.468502
 C         -55.594948     -150.819687      -51.324787
 C         -54.158482     -151.009659      -50.943810
 H         -54.663036     -154.111237      -49.591751
 H         -54.636639     -152.880920      -48.434063
 H         -57.485291     -151.364182      -50.675350
 H         -56.446102     -150.710388      -49.437450
 H         -53.869534     -153.262222      -51.282158
 H         -52.865658     -152.576004      -50.108498
 H         -55.725937     -149.697952      -51.503094
 H         -55.662411     -151.377869      -52.243874
 H         -53.453823     -150.620239      -51.772049
 H         -53.934471     -150.375458      -50.090546
