20
 generated by VMD
 C         -30.176958      -80.171692      -26.443886
 N         -29.426624      -79.313789      -26.296946
 H         -28.308470      -82.778900      -25.568163
 H         -30.726429      -81.183693      -26.326622
 C         -29.059202      -82.858337      -24.721514
 C         -28.972343      -81.980865      -23.483276
 C         -30.110422      -84.049507      -24.690441
 C         -30.314100      -81.965111      -22.602917
 C         -31.170666      -84.011490      -23.633713
 C         -30.805166      -83.358879      -22.306677
 H         -28.694290      -80.904556      -23.689520
 H         -28.207653      -82.422043      -22.768225
 H         -30.701311      -84.061836      -25.654831
 H         -29.541796      -84.929672      -24.529814
 H         -30.953287      -81.371933      -23.232876
 H         -30.083576      -81.410767      -21.690256
 H         -31.422974      -85.069489      -23.327030
 H         -32.062931      -83.554756      -23.973455
 H         -31.625719      -83.203506      -21.633823
 H         -30.020868      -83.985069      -21.879824
