20
 generated by VMD
 C         -75.011932     -201.566910      -66.615929
 N         -75.123703     -201.737686      -65.495911
 H         -76.176041     -199.579315      -69.015190
 H         -74.654419     -201.347305      -67.640343
 C         -75.342010     -198.952377      -69.041595
 C         -74.987206     -197.776077      -68.221436
 C         -74.286919     -199.562912      -69.960068
 C         -73.426338     -197.711685      -67.995209
 C         -73.115181     -198.594635      -70.433144
 C         -72.649200     -197.634674      -69.339355
 H         -75.625214     -197.634674      -67.269203
 H         -75.267303     -196.852524      -68.863266
 H         -73.740250     -200.312698      -69.355606
 H         -74.806091     -199.947098      -70.822433
 H         -73.185730     -198.692001      -67.513214
 H         -73.195000     -196.858963      -67.390076
 H         -73.592583     -198.064285      -71.303589
 H         -72.211082     -199.214554      -70.732597
 H         -71.451164     -197.734146      -69.199036
 H         -72.659004     -196.650803      -69.625671
