20
 generated by VMD
 C         -29.921507      -73.991882      -20.564558
 N         -29.944315      -75.136299      -20.312704
 H         -26.830669      -74.392601      -19.126005
 H         -29.777792      -73.056900      -21.120636
 C         -26.538885      -74.237198      -20.164915
 C         -26.057343      -75.416214      -20.952259
 C         -26.057201      -72.835350      -20.381186
 C         -26.016783      -75.108490      -22.454647
 C         -25.947748      -72.578575      -21.902075
 C         -25.344534      -73.735359      -22.606112
 H         -26.561394      -76.362816      -20.702927
 H         -25.074648      -75.676811      -20.619656
 H         -26.622963      -72.198479      -19.774225
 H         -25.068008      -72.749084      -19.969231
 H         -27.092039      -75.165665      -22.738579
 H         -25.449512      -75.780968      -23.093681
 H         -25.366776      -71.672455      -22.038649
 H         -27.034725      -72.450935      -22.113714
 H         -25.282234      -73.498238      -23.671392
 H         -24.320322      -73.794075      -22.165169
