20
 generated by VMD
 C         -13.683781      -45.377712       -5.697848
 N         -14.348474      -45.047676       -6.535302
 H         -15.129422      -44.325199       -9.042624
 H         -14.451115      -43.886402      -10.602966
 C         -15.367924      -44.271290      -10.143208
 C         -16.434814      -43.266125      -10.428389
 C         -15.711953      -45.670197      -10.644871
 C         -16.977682      -43.250267      -11.890520
 C         -16.218254      -45.635033      -12.078754
 C         -17.371141      -44.707333      -12.320534
 H         -16.065342      -42.249470      -10.180784
 H         -17.215578      -43.390213       -9.705363
 H         -14.857077      -46.355083      -10.613663
 H         -16.453068      -46.111759       -9.938199
 H         -16.276426      -42.830917      -12.635720
 H         -17.889133      -42.647385      -11.975709
 H         -16.446659      -46.699173      -12.393067
 H         -15.397029      -45.399323      -12.709856
 H         -17.698626      -44.664009      -13.415625
 H         -18.229912      -45.027966      -11.670727
