20
 generated by VMD
 C         -79.798203     -206.962921      -74.205147
 N         -80.417816     -206.093079      -74.716141
 H         -78.007759     -206.678848      -71.631325
 H         -79.125374     -207.800629      -73.876045
 C         -77.136932     -207.240082      -71.654671
 C         -75.777557     -206.467392      -71.619301
 C         -77.135017     -208.518463      -70.755608
 C         -75.400871     -206.161026      -70.100388
 C         -76.911812     -208.186539      -69.345169
 C         -75.563011     -207.530563      -69.325630
 H         -75.763229     -205.452148      -72.045586
 H         -75.122017     -207.190094      -72.101555
 H         -78.112183     -208.980377      -70.774376
 H         -76.312767     -209.276138      -71.015640
 H         -76.038933     -205.351288      -69.753372
 H         -74.370461     -205.790817      -69.917206
 H         -76.898125     -209.110779      -68.713142
 H         -77.699379     -207.510910      -68.956383
 H         -75.363823     -207.241409      -68.246613
 H         -74.724899     -208.196259      -69.590485
