20
 generated by VMD
 C         -38.708755     -113.740974      -35.631187
 N         -37.944023     -114.618980      -35.729778
 H         -41.258606     -114.557030      -35.888237
 H         -39.242504     -112.759705      -35.755196
 C         -42.239994     -114.484398      -36.308105
 C         -42.504463     -114.628876      -37.775211
 C         -43.454853     -114.322098      -35.389183
 C         -43.697289     -115.459190      -38.141277
 C         -44.585487     -115.351509      -35.753311
 C         -44.916382     -115.188843      -37.292324
 H         -41.541100     -115.043091      -38.161041
 H         -42.592754     -113.603279      -38.138134
 H         -43.212170     -114.442543      -34.315960
 H         -43.968300     -113.375183      -35.593594
 H         -43.441460     -116.500145      -38.229462
 H         -43.873039     -115.134270      -39.173599
 H         -45.570362     -115.060326      -35.312984
 H         -44.310295     -116.436913      -35.574276
 H         -45.723793     -115.881065      -37.391460
 H         -45.270119     -114.262901      -37.457581
