20
 generated by VMD
 C         -65.321960     -176.948669      -56.141541
 N         -65.836647     -177.371597      -55.179405
 H         -64.085716     -174.951050      -59.269295
 H         -64.750343     -176.625366      -57.015823
 C         -64.187447     -173.802841      -59.414513
 C         -65.274612     -172.902359      -58.885887
 C         -63.657959     -173.354492      -60.693478
 C         -64.638374     -171.435196      -58.567871
 C         -63.190151     -171.936676      -60.684322
 C         -64.194321     -170.864304      -60.041302
 H         -65.752861     -173.352798      -57.891327
 H         -66.039665     -172.730591      -59.575798
 H         -62.793007     -174.015274      -60.841072
 H         -64.436584     -173.703781      -61.532955
 H         -63.823727     -171.403000      -57.894867
 H         -65.367607     -170.797775      -58.112061
 H         -63.115791     -171.738327      -61.741215
 H         -62.155430     -171.829880      -60.169052
 H         -63.711063     -169.904602      -59.951950
 H         -65.176170     -170.762756      -60.622025
