20
 generated by VMD
 C         -58.412975     -161.906265      -56.377296
 N         -57.244877     -161.824783      -56.621693
 H         -59.588028     -164.734436      -55.285038
 H         -59.458233     -161.951889      -56.128689
 C         -60.380383     -164.225525      -54.845566
 C         -60.323578     -163.947510      -53.392246
 C         -61.632500     -164.335464      -55.606529
 C         -61.286442     -162.795990      -53.229950
 C         -62.744099     -163.502731      -55.121719
 C         -62.741493     -163.224976      -53.588161
 H         -59.355373     -163.538513      -53.116714
 H         -60.501671     -164.745087      -52.796368
 H         -61.644619     -164.130447      -56.722702
 H         -61.919731     -165.376266      -55.454353
 H         -60.933331     -162.047516      -53.841389
 H         -61.244091     -162.569794      -52.164486
 H         -63.792316     -163.785980      -55.549263
 H         -62.749439     -162.527359      -55.535416
 H         -63.268959     -162.321869      -53.451599
 H         -63.099407     -164.086105      -52.974319
