20
 generated by VMD
 C         -68.755188     -185.707291      -66.418076
 N         -68.115768     -186.272476      -67.223038
 H         -69.702614     -183.562149      -63.963783
 H         -69.369637     -185.258347      -65.683159
 C         -69.432228     -184.236038      -63.059631
 C         -70.581665     -184.843369      -62.385124
 C         -67.924088     -184.455704      -62.632904
 C         -70.345596     -185.786331      -61.240261
 C         -67.898071     -185.456223      -61.461555
 C         -69.057304     -186.525635      -61.533314
 H         -71.211761     -185.352203      -63.162514
 H         -71.198181     -184.030457      -61.943821
 H         -67.419182     -184.854584      -63.525398
 H         -67.394150     -183.491425      -62.301571
 H         -71.130157     -186.514252      -61.114765
 H         -70.413254     -185.179169      -60.386353
 H         -67.833031     -184.833893      -60.517033
 H         -66.954613     -185.995010      -61.492920
 H         -69.011795     -186.886658      -62.615601
 H         -68.780357     -187.485016      -60.945129
