20
 generated by VMD
 C         -57.103279     -163.817947      -56.726414
 N         -57.248550     -162.835800      -57.268452
 H         -60.045670     -163.954742      -54.176708
 H         -56.879002     -164.736526      -56.245182
 C         -60.881577     -164.598434      -54.556580
 C         -61.630226     -165.404678      -53.508183
 C         -61.515541     -164.609726      -55.962044
 C         -62.963188     -164.579453      -53.335251
 C         -62.806755     -163.813126      -55.863827
 C         -63.709362     -164.367447      -54.690193
 H         -61.156151     -165.327530      -52.534935
 H         -61.809597     -166.463104      -53.879303
 H         -60.864700     -163.963364      -56.586956
 H         -61.503456     -165.602158      -56.259804
 H         -62.774670     -163.528168      -53.055359
 H         -63.617733     -164.971848      -52.518284
 H         -63.457912     -163.865189      -56.828239
 H         -62.475773     -162.660950      -55.538303
 H         -64.653107     -163.757477      -54.485695
 H         -64.135178     -165.393860      -54.992962
