20
 generated by VMD
 C         -12.365777      -31.998373       -8.783502
 N         -12.644150      -30.907846       -8.657271
 H         -10.449712      -34.716938       -7.476536
 H         -11.544298      -33.747753       -6.479738
 C         -11.165833      -34.775230       -6.595420
 C         -10.342788      -35.097710       -5.335590
 C         -12.384163      -35.596733       -6.765122
 C         -11.202097      -35.257610       -4.063060
 C         -13.225489      -35.657444       -5.491959
 C         -12.402108      -36.128017       -4.319819
 H          -9.563689      -34.384865       -5.116640
 H          -9.900357      -36.115776       -5.499885
 H         -12.989559      -35.320004       -7.635969
 H         -12.022283      -36.604202       -6.970946
 H         -11.578156      -34.287937       -3.752481
 H         -10.563926      -35.592228       -3.294408
 H         -14.020103      -36.326431       -5.674200
 H         -13.633084      -34.639339       -5.346144
 H         -13.012578      -36.109104       -3.425912
 H         -12.110622      -37.193981       -4.499795
