20
 generated by VMD
 C         -23.496527      -54.811386      -14.876670
 N         -23.291067      -54.218422      -15.802838
 H         -20.428984      -54.799835      -15.185894
 H         -24.042700      -55.315205      -14.080400
 C         -19.465128      -55.230076      -14.757353
 C         -18.888226      -54.685661      -13.552376
 C         -19.093086      -56.515686      -15.416422
 C         -18.925049      -55.723362      -12.451948
 C         -18.844856      -57.536835      -14.221377
 C         -18.128525      -56.984024      -12.962811
 H         -19.404930      -53.790760      -13.136038
 H         -17.772053      -54.477497      -13.742832
 H         -19.914221      -56.904072      -15.988410
 H         -18.180725      -56.186520      -16.068642
 H         -19.927286      -55.908062      -12.052314
 H         -18.449972      -55.238972      -11.539290
 H         -18.328173      -58.414162      -14.626419
 H         -19.797943      -57.928383      -13.867148
 H         -17.980846      -57.687782      -12.166533
 H         -17.077116      -56.706135      -13.186740
