20
 generated by VMD
 C         -79.024696     -209.346909      -77.015060
 N         -79.001694     -209.756851      -75.923561
 H         -77.590614     -209.978394      -73.536613
 H         -79.074310     -208.857544      -77.972809
 C         -78.109978     -210.628464      -72.760139
 C         -77.172859     -211.127289      -71.661057
 C         -79.525749     -211.422409      -73.070007
 C         -77.962936     -211.463333      -70.409492
 C         -80.006264     -212.216507      -71.839203
 C         -78.983170     -212.591568      -70.769241
 H         -76.401909     -210.312180      -71.549522
 H         -76.676056     -212.071487      -72.043304
 H         -80.194801     -210.612259      -73.428909
 H         -79.343437     -212.111176      -73.931747
 H         -78.488556     -210.552322      -70.085632
 H         -77.398582     -211.867691      -69.569069
 H         -80.591705     -213.195404      -72.203033
 H         -80.642487     -211.543137      -71.366539
 H         -79.520645     -213.186310      -70.051575
 H         -78.314804     -213.267517      -71.292702
