20
 generated by VMD
 C         -49.164307     -127.108932      -39.665474
 N         -50.271267     -127.243065      -39.404903
 H         -46.634586     -127.042824      -42.600716
 H         -48.232769     -126.905495      -40.168552
 C         -46.353130     -126.398865      -41.829826
 C         -45.349323     -126.972008      -40.833069
 C         -46.634609     -125.002716      -41.946964
 C         -44.203594     -125.931236      -40.432087
 C         -45.463673     -123.993362      -41.555252
 C         -44.931751     -124.540237      -40.156166
 H         -44.842583     -127.815170      -41.327499
 H         -46.005524     -127.292427      -40.026443
 H         -46.863052     -124.738907      -43.017216
 H         -47.476696     -124.777573      -41.267342
 H         -43.294437     -125.800781      -41.109241
 H         -43.853146     -126.306129      -39.436295
 H         -45.836098     -122.999687      -41.253136
 H         -44.615730     -124.068733      -42.183033
 H         -44.273239     -123.784676      -39.642361
 H         -45.704788     -124.773407      -39.465771
