20
 generated by VMD
 C          -1.518979      -11.152113        1.555180
 N          -1.064330      -12.011218        1.025842
 H          -3.859366      -13.161612        0.195139
 H          -5.451316      -12.960302        0.878531
 C          -4.612229      -13.625546        0.761028
 C          -4.061911      -13.828958        2.271612
 C          -5.077926      -14.879806        0.127889
 C          -5.153714      -14.565813        3.101798
 C          -6.134820      -15.504680        1.021437
 C          -5.638920      -15.814783        2.428743
 H          -3.896464      -12.829256        2.751532
 H          -3.117733      -14.460459        2.273466
 H          -5.502692      -14.739064       -0.813866
 H          -4.244545      -15.526548        0.089711
 H          -6.033103      -13.845251        3.226222
 H          -4.758170      -14.783383        4.113153
 H          -6.425501      -16.416368        0.470567
 H          -6.986699      -14.803783        1.011577
 H          -6.471551      -16.232527        2.984457
 H          -4.869641      -16.542505        2.369678
