20
 generated by VMD
 C         -29.865595      -79.312141      -26.135588
 N         -30.798477      -78.662888      -25.936638
 H         -29.038500      -82.911270      -25.765900
 H         -28.952810      -79.913170      -26.181761
 C         -29.004354      -82.960663      -24.741295
 C         -28.422237      -82.097755      -23.767050
 C         -29.795366      -84.016556      -24.073378
 C         -29.392704      -81.389351      -22.812155
 C         -30.987598      -83.448204      -23.250383
 C         -30.529459      -82.422134      -22.143599
 H         -27.866768      -81.335449      -24.291477
 H         -27.696342      -82.755135      -23.176264
 H         -30.140467      -84.618492      -24.855658
 H         -29.227625      -84.652290      -23.388872
 H         -29.995123      -80.679146      -23.491734
 H         -29.136553      -80.774689      -21.965416
 H         -31.529564      -84.221916      -22.809448
 H         -31.700977      -83.022820      -23.995373
 H         -31.321266      -81.832825      -21.693954
 H         -30.026920      -82.948891      -21.336334
