20
 generated by VMD
 C         -79.123695     -209.245514      -76.906036
 N         -79.006264     -209.867432      -75.927948
 H         -77.786011     -209.711655      -73.232117
 H         -79.214149     -208.735397      -77.834831
 C         -78.079887     -210.608490      -72.707108
 C         -77.235733     -210.995056      -71.633224
 C         -79.356354     -211.399033      -72.985519
 C         -77.909782     -211.463028      -70.493149
 C         -79.949684     -212.031036      -71.845024
 C         -78.943207     -212.578201      -70.817856
 H         -76.585495     -210.171005      -71.476173
 H         -76.708458     -211.868637      -72.016083
 H         -80.004135     -210.612869      -73.559097
 H         -79.057449     -212.165817      -73.730309
 H         -78.492722     -210.632767      -70.131126
 H         -77.315475     -211.732361      -69.633255
 H         -80.506126     -212.927658      -72.294151
 H         -80.603279     -211.256363      -71.347855
 H         -79.627388     -212.883057      -70.055954
 H         -78.413361     -213.459885      -71.192795
