20
 generated by VMD
 C         -60.169716     -156.240280      -55.440247
 N         -60.502792     -155.100632      -55.462845
 H         -59.870747     -157.896652      -52.383511
 H         -59.871502     -157.225525      -55.181244
 C         -58.863274     -157.573227      -52.071426
 C         -58.310520     -156.148834      -52.249611
 C         -58.025517     -158.758926      -51.786121
 C         -57.156078     -155.967377      -51.180393
 C         -57.044765     -158.495544      -50.686806
 C         -56.235184     -157.195221      -51.051590
 H         -59.001324     -155.324417      -52.131657
 H         -58.037003     -156.071274      -53.283691
 H         -58.552937     -159.733154      -51.506260
 H         -57.389385     -159.071030      -52.633343
 H         -57.458351     -155.978531      -50.154667
 H         -56.750355     -154.997955      -51.220161
 H         -56.379749     -159.384491      -50.596897
 H         -57.370335     -158.326233      -49.680336
 H         -55.464909     -156.977676      -50.201542
 H         -55.564995     -157.272339      -51.896545
