20
 generated by VMD
 C         -11.539124      -33.733025       -9.059268
 N         -11.252078      -34.501320       -8.343932
 H         -11.521646      -37.038830       -8.041855
 H         -12.190969      -36.330532       -6.650780
 C         -12.258958      -37.188824       -7.259973
 C         -12.050206      -38.546093       -6.578164
 C         -13.672032      -37.053501       -7.873210
 C         -13.153985      -38.823505       -5.560221
 C         -14.697665      -37.265968       -6.818339
 C         -14.565217      -38.651318       -6.142912
 H         -11.089471      -38.540745       -6.029962
 H         -11.954334      -39.300945       -7.344894
 H         -13.762621      -36.054855       -8.295650
 H         -13.827879      -37.685013       -8.737977
 H         -13.087828      -38.142887       -4.667698
 H         -12.975912      -39.794498       -5.167359
 H         -15.704594      -37.209118       -7.216194
 H         -14.653874      -36.553013       -6.009403
 H         -15.344644      -38.795238       -5.335972
 H         -14.762351      -39.362354       -6.936743
