20
 generated by VMD
 C         -38.941017     -109.789322      -35.943317
 N         -37.957481     -109.194695      -36.112190
 H         -42.062660     -110.341209      -37.123463
 H         -39.783016     -110.568832      -35.883888
 C         -41.904278     -110.893547      -36.202496
 C         -41.741852     -112.318916      -36.074905
 C         -42.303715     -110.283760      -34.817657
 C         -41.011242     -112.828728      -34.929935
 C         -41.633297     -110.833450      -33.577145
 C         -41.673782     -112.379044      -33.592457
 H         -41.363907     -112.704979      -37.029747
 H         -42.718311     -112.830460      -36.134930
 H         -42.176300     -109.178932      -34.959568
 H         -43.378880     -110.642433      -34.794071
 H         -39.853130     -112.702888      -34.931412
 H         -41.180176     -113.876221      -35.067226
 H         -42.312458     -110.613907      -32.790424
 H         -40.646645     -110.552368      -33.360905
 H         -41.219494     -112.785942      -32.720905
 H         -42.829681     -112.617172      -33.757565
