20
 generated by VMD
 C         -40.859715     -102.784843      -34.871494
 N         -41.471519     -102.596848      -35.830063
 H         -39.507904     -104.439926      -33.018211
 H         -40.133747     -102.997536      -34.075909
 C         -38.754829     -104.698639      -32.297787
 C         -37.580605     -104.181320      -32.956959
 C         -38.685108     -105.970535      -31.557650
 C         -36.495613     -104.029861      -31.938078
 C         -37.542744     -105.978004      -30.562794
 C         -36.265724     -105.416100      -31.246401
 H         -37.892063     -103.204330      -33.341476
 H         -37.191154     -104.692436      -33.881313
 H         -39.670773     -106.154633      -31.191122
 H         -38.483238     -106.825302      -32.211811
 H         -36.571888     -103.220261      -31.230688
 H         -35.602852     -103.719048      -32.444271
 H         -37.402134     -106.916328      -30.143721
 H         -37.625744     -105.224869      -29.765316
 H         -35.424366     -105.411575      -30.593641
 H         -36.029839     -106.067268      -32.127125
