20
 generated by VMD
 C         -56.822144     -150.548798      -47.890564
 N         -57.866482     -150.679489      -48.478031
 H         -53.850548     -148.503571      -47.228252
 H         -55.877739     -150.303894      -47.397903
 C         -54.163979     -148.520004      -48.322144
 C         -53.505180     -149.290497      -49.385014
 C         -54.679470     -147.152664      -48.667934
 C         -54.194893     -149.145035      -50.831898
 C         -55.507671     -147.059540      -49.967510
 C         -54.672268     -147.711517      -51.240105
 H         -53.652958     -150.386383      -49.229847
 H         -52.441563     -149.114746      -49.277542
 H         -55.174053     -146.708099      -47.771786
 H         -53.820110     -146.580917      -48.793430
 H         -54.991329     -149.913971      -50.775272
 H         -53.469440     -149.517288      -51.543930
 H         -55.741661     -145.923096      -50.155678
 H         -56.438786     -147.474976      -49.902599
 H         -55.239872     -147.581635      -52.182705
 H         -53.837898     -147.082672      -51.330490
