20
 generated by VMD
 C         -12.973033      -28.535866       -5.140154
 N         -12.873675      -27.530190       -5.619671
 H         -11.132854      -31.057339       -3.105035
 H         -11.006628      -29.380247       -4.008674
 C         -10.478782      -30.233376       -3.596880
 C          -9.686429      -30.886404       -4.664265
 C          -9.555315      -29.575754       -2.518590
 C          -8.770259      -29.894728       -5.350221
 C          -8.510366      -28.660458       -3.135782
 C          -7.764556      -29.361425       -4.277838
 H         -10.360791      -31.294775       -5.396102
 H          -9.038433      -31.734833       -4.198946
 H         -10.193331      -29.040236       -1.804110
 H          -9.086449      -30.370552       -1.980837
 H          -9.436304      -29.104939       -5.847173
 H          -8.149204      -30.469740       -6.085128
 H          -7.799761      -28.418079       -2.389465
 H          -8.938905      -27.718061       -3.572632
 H          -7.093710      -28.560692       -4.646268
 H          -7.224001      -30.182444       -3.880699
