20
 generated by VMD
 C         -57.412056     -162.528198      -56.244984
 N         -57.160297     -162.206055      -57.335754
 H         -59.648357     -165.138672      -55.022205
 H         -57.748169     -162.822800      -55.287544
 C         -60.584625     -164.645584      -54.828247
 C         -60.863945     -164.325043      -53.399529
 C         -61.749134     -164.624634      -55.764301
 C         -62.164307     -163.659042      -53.114033
 C         -62.813301     -163.586258      -55.420506
 C         -63.363842     -163.765594      -54.061260
 H         -60.124828     -163.840332      -52.851482
 H         -60.877934     -165.247391      -52.910419
 H         -61.312744     -164.473114      -56.787239
 H         -62.287872     -165.633728      -55.819477
 H         -61.997112     -162.590622      -52.986462
 H         -62.496025     -164.026535      -52.200588
 H         -63.544666     -163.678406      -56.234474
 H         -62.393902     -162.536728      -55.743114
 H         -64.083290     -162.921860      -53.793972
 H         -63.796227     -164.773697      -54.061295
