20
 generated by VMD
 C         -56.299873     -149.560165      -46.138107
 N         -56.431747     -150.547607      -45.547054
 H         -53.923126     -148.044250      -47.749454
 H         -56.187862     -148.681915      -46.810307
 C         -53.939198     -147.467651      -48.628075
 C         -53.003685     -147.725235      -49.839226
 C         -54.524452     -146.074310      -48.514408
 C         -53.703064     -147.220840      -51.230972
 C         -55.340679     -145.894150      -49.890079
 C         -54.363754     -145.816696      -51.124996
 H         -52.590553     -148.681778      -49.886360
 H         -52.156815     -146.933777      -49.646397
 H         -55.261196     -146.070160      -47.826408
 H         -53.721634     -145.350677      -48.402824
 H         -54.397118     -148.049210      -51.463074
 H         -52.870998     -147.291702      -51.926266
 H         -56.012005     -144.906357      -49.872536
 H         -56.137764     -146.612274      -50.084129
 H         -54.878059     -145.429596      -52.024242
 H         -53.559872     -145.103851      -50.837421
