20
 generated by VMD
 C         -12.534118      -30.217594       -7.883996
 N         -13.558094      -29.904779       -7.579972
 H         -11.384070      -30.372717       -5.251982
 H         -10.478141      -30.639477       -3.700794
 C         -10.834721      -31.087208       -4.586185
 C          -9.682615      -31.554722       -5.400038
 C         -11.701209      -32.196968       -4.078854
 C          -8.915274      -32.724190       -4.718813
 C         -10.972994      -33.387779       -3.541865
 C          -9.909396      -33.897900       -4.450997
 H          -9.003084      -30.726038       -5.696182
 H         -10.024173      -31.948885       -6.408553
 H         -12.437521      -31.782949       -3.387956
 H         -12.247799      -32.634811       -4.890812
 H          -8.453447      -32.351467       -3.833596
 H          -8.086602      -32.994862       -5.321789
 H         -11.701238      -34.184029       -3.339340
 H         -10.627271      -33.096512       -2.514630
 H          -9.440385      -34.744762       -4.041624
 H         -10.314853      -34.199924       -5.386035
