20
 generated by VMD
 C         -48.229359     -135.398026      -46.119404
 N         -47.417412     -135.095688      -46.862881
 H         -51.453110     -134.875229      -45.774605
 H         -49.006039     -135.710800      -45.407024
 C         -51.359856     -135.641556      -44.964596
 C         -52.030041     -136.831055      -45.472912
 C         -51.293144     -135.471786      -43.443768
 C         -51.400921     -138.076492      -44.800705
 C         -50.670185     -136.681808      -42.893406
 C         -51.345043     -137.935455      -43.267349
 H         -52.011894     -136.939362      -46.619347
 H         -53.037842     -136.712601      -45.194054
 H         -50.719849     -134.562057      -43.150936
 H         -52.342991     -135.301392      -43.137756
 H         -50.379341     -138.172989      -45.088326
 H         -51.883991     -139.037079      -45.003311
 H         -50.745026     -136.558273      -41.805084
 H         -49.660404     -136.663422      -43.214081
 H         -50.809101     -138.872849      -42.807014
 H         -52.435558     -137.966812      -42.868137
