20
 generated by VMD
 C         -47.702751     -138.042160      -45.919830
 N         -47.274372     -137.740479      -46.905499
 H         -50.313988     -137.769958      -44.296803
 H         -48.154018     -138.244751      -44.997173
 C         -51.269695     -138.108841      -44.743084
 C         -51.422695     -138.591110      -46.260174
 C         -52.550014     -137.630127      -44.105331
 C         -52.421272     -139.717224      -46.293850
 C         -53.577480     -138.790543      -44.171089
 C         -53.746220     -139.301025      -45.600960
 H         -50.475876     -138.922211      -46.732243
 H         -51.652016     -137.626633      -46.857414
 H         -52.299778     -137.317764      -43.120361
 H         -52.840660     -136.662338      -44.497292
 H         -51.992867     -140.488647      -45.626488
 H         -52.573956     -140.280289      -47.222881
 H         -54.595695     -138.560135      -43.901024
 H         -53.435192     -139.615936      -43.433128
 H         -54.420994     -140.037613      -45.648727
 H         -54.071156     -138.458588      -46.153320
