20
 generated by VMD
 C         -58.268391     -167.438370      -55.440250
 N         -57.292446     -167.848007      -55.061028
 H         -61.039242     -166.309723      -55.076126
 H         -59.182835     -166.992691      -55.685776
 C         -61.687115     -166.063293      -55.919849
 C         -62.147533     -166.947647      -57.052135
 C         -62.692837     -164.853714      -55.656208
 C         -63.719944     -167.412308      -57.007416
 C         -64.159805     -165.300262      -55.562935
 C         -64.580849     -166.198364      -56.784611
 H         -61.589226     -167.803497      -57.096115
 H         -61.947636     -166.433731      -58.060917
 H         -62.363594     -164.477158      -54.672909
 H         -62.582523     -164.096802      -56.377838
 H         -63.856304     -167.981827      -56.111465
 H         -64.042847     -167.939453      -57.912342
 H         -64.923988     -164.502899      -55.603439
 H         -64.366776     -165.923157      -54.761021
 H         -65.668114     -166.601013      -56.692142
 H         -64.664772     -165.456833      -57.674347
