20
 generated by VMD
 C         -47.795887     -136.717438      -46.030144
 N         -47.085121     -136.483337      -46.949867
 H         -50.577667     -135.974350      -45.421658
 H         -48.578861     -136.974030      -45.271046
 C         -51.053131     -136.902725      -44.980614
 C         -51.450569     -137.851044      -46.121571
 C         -51.979805     -136.684570      -43.821651
 C         -52.112347     -139.101685      -45.583828
 C         -52.559227     -137.966293      -43.283051
 C         -53.135246     -138.833740      -44.537827
 H         -50.593113     -138.075592      -46.809429
 H         -52.221439     -137.366043      -46.650314
 H         -51.423275     -136.252029      -43.002235
 H         -52.794266     -135.914703      -43.927502
 H         -51.284859     -139.770828      -45.197662
 H         -52.610031     -139.746857      -46.256340
 H         -53.235981     -137.810440      -42.363960
 H         -51.692600     -138.421738      -42.733917
 H         -53.667725     -139.734100      -44.057816
 H         -53.966843     -138.289200      -44.972588
