20
 generated by VMD
 C         -19.305393      -62.555073      -17.414022
 N         -20.226654      -62.487015      -16.699102
 H         -22.277847      -64.466293      -16.760138
 H         -18.324114      -62.789753      -18.002457
 C         -23.316902      -64.554024      -17.146133
 C         -23.681150      -64.069122      -18.524401
 C         -24.353443      -65.104042      -16.286179
 C         -24.607544      -65.152870      -19.166882
 C         -25.142864      -66.299515      -16.873745
 C         -25.662378      -65.791252      -18.222593
 H         -22.920509      -63.792931      -19.185017
 H         -24.193062      -63.144962      -18.483137
 H         -23.823486      -65.289780      -15.375480
 H         -24.960651      -64.192810      -15.973145
 H         -24.013075      -66.004318      -19.509283
 H         -25.217728      -64.673729      -19.989439
 H         -25.930073      -66.662598      -16.215189
 H         -24.415354      -67.138161      -17.043283
 H         -26.218918      -66.552841      -18.743479
 H         -26.365875      -64.889847      -18.029398
