20
 generated by VMD
 C         -11.926895      -39.415638       -6.433632
 N         -11.234007      -39.107944       -7.251982
 H         -12.802176      -41.230156       -9.023889
 H         -14.030214      -39.909595       -8.664893
 C         -13.872730      -40.971436       -9.047198
 C         -14.520521      -41.878281       -7.959517
 C         -14.501755      -41.207230      -10.397623
 C         -16.075184      -41.822689       -8.019949
 C         -15.990684      -40.960304      -10.377813
 C         -16.735048      -41.872547       -9.371567
 H         -14.101558      -41.557476       -7.013493
 H         -14.160254      -42.938217       -8.077252
 H         -13.987257      -40.603447      -11.104133
 H         -14.198537      -42.250702      -10.692922
 H         -16.427094      -40.873901       -7.571414
 H         -16.461309      -42.621231       -7.404856
 H         -16.454144      -41.168221      -11.408000
 H         -16.213455      -39.995441      -10.067724
 H         -17.783888      -41.673809       -9.327897
 H         -16.692972      -42.873970       -9.790186
