20
 generated by VMD
 C         -22.812704      -52.435638      -12.067882
 N         -23.380136      -52.463409      -11.106750
 H         -19.937571      -52.998222      -13.921571
 H         -22.125797      -52.337280      -12.964824
 C         -18.885223      -53.033901      -13.894403
 C         -18.160210      -52.057076      -14.744346
 C         -18.181740      -54.085617      -13.097849
 C         -16.663610      -52.170143      -14.550508
 C         -17.071548      -53.523079      -12.296251
 C         -16.220324      -52.409657      -13.090030
 H         -18.631851      -51.103775      -14.567833
 H         -18.246748      -52.335491      -15.842232
 H         -18.911331      -54.619061      -12.392891
 H         -17.853916      -54.851974      -13.795342
 H         -16.189287      -51.264759      -14.932054
 H         -16.166328      -52.969631      -15.066527
 H         -16.396984      -54.307438      -11.944046
 H         -17.586399      -53.074398      -11.384793
 H         -16.122213      -51.460472      -12.555576
 H         -15.149561      -52.709946      -13.075898
