20
 generated by VMD
 C         -49.842072     -142.261978      -45.148689
 N         -48.997723     -143.045792      -45.344345
 H         -51.867401     -139.088745      -46.193478
 H         -50.757168     -141.655014      -45.163010
 C         -52.444500     -140.037827      -46.390564
 C         -52.434834     -140.189865      -47.884830
 C         -53.706676     -140.384338      -45.648449
 C         -52.837952     -141.609329      -48.277889
 C         -54.233837     -141.715881      -46.176826
 C         -54.247250     -141.910797      -47.680603
 H         -51.388790     -140.098480      -48.062515
 H         -53.013721     -139.346924      -48.367496
 H         -53.401676     -140.375732      -44.562401
 H         -54.608505     -139.647354      -45.926655
 H         -52.162590     -142.352753      -47.878410
 H         -52.889572     -141.551147      -49.368450
 H         -55.174873     -141.848999      -45.747116
 H         -53.616325     -142.487671      -45.761608
 H         -54.414146     -142.965805      -47.886742
 H         -54.956196     -141.219818      -48.106106
