20
 generated by VMD
 C         -28.499153      -82.490891      -26.354349
 N         -27.734430      -82.738083      -27.221090
 H         -31.415766      -83.882011      -26.418070
 H         -29.215847      -82.217918      -25.593351
 C         -31.334120      -84.705177      -25.744297
 C         -30.822077      -84.441399      -24.416540
 C         -31.993570      -86.002434      -26.110163
 C         -31.810278      -84.939873      -23.292364
 C         -32.986835      -86.357033      -25.068892
 C         -32.380985      -86.367836      -23.632860
 H         -30.632322      -83.373573      -24.318871
 H         -29.997660      -84.990952      -24.140646
 H         -32.339188      -86.120270      -27.136261
 H         -31.172043      -86.801620      -26.092260
 H         -32.719772      -84.296600      -23.376583
 H         -31.310469      -84.885361      -22.399872
 H         -33.473072      -87.308739      -25.238056
 H         -33.839924      -85.567780      -24.903107
 H         -33.129444      -86.420799      -22.833288
 H         -31.546286      -87.093994      -23.380558
