20
 generated by VMD
 C          -1.887096      -13.991488        2.268369
 N          -1.734111      -14.871469        1.603414
 H          -3.742690      -16.737820        0.573605
 H          -4.659250      -17.117081       -0.818784
 C          -4.746429      -16.878052        0.244853
 C          -5.573991      -15.682063        0.347370
 C          -5.388072      -18.103762        0.867130
 C          -6.856367      -15.878084       -0.426632
 C          -6.729568      -18.389288        0.209233
 C          -7.643699      -17.129656        0.080568
 H          -5.021589      -14.776696       -0.034141
 H          -5.799459      -15.445289        1.365145
 H          -4.767606      -18.962004        0.898150
 H          -5.536934      -18.003225        1.887783
 H          -6.649507      -16.053276       -1.540683
 H          -7.469998      -14.965147       -0.341912
 H          -7.310180      -19.174160        0.801203
 H          -6.663274      -18.763721       -0.833621
 H          -8.345399      -17.405283       -0.697046
 H          -8.179590      -17.031052        1.031787
