20
 generated by VMD
 C         -73.624580     -200.240219      -65.715118
 N         -73.505470     -201.044556      -64.871758
 H         -72.072380     -197.462463      -66.858124
 H         -73.758179     -199.742920      -66.617172
 C         -72.588188     -196.815323      -67.537384
 C         -73.514458     -195.696777      -67.205330
 C         -72.442856     -197.266296      -68.965729
 C         -74.137474     -195.037994      -68.463821
 C         -73.872253     -197.384781      -69.488228
 C         -74.656578     -196.032639      -69.484520
 H         -73.166000     -194.716141      -66.636230
 H         -74.220558     -196.067108      -66.497261
 H         -71.760765     -196.669815      -69.569504
 H         -71.954315     -198.249771      -68.983864
 H         -73.411125     -194.309372      -68.850395
 H         -75.041306     -194.553848      -68.092880
 H         -74.449677     -198.187119      -68.975815
 H         -73.697968     -197.618713      -70.540985
 H         -74.628090     -195.574844      -70.478699
 H         -75.808090     -196.269974      -69.391441
