20
 generated by VMD
 C         -12.423560      -28.418913       -5.775693
 N         -13.310155      -27.753290       -5.821570
 H         -11.820481      -31.611044       -4.126385
 H         -11.249387      -30.087545       -4.851004
 C         -10.904941      -31.027594       -4.230561
 C          -9.815042      -31.698635       -5.056602
 C         -10.347545      -30.358936       -2.908064
 C          -8.522100      -30.916948       -5.252893
 C          -9.138202      -29.433512       -3.252082
 C          -7.986017      -30.174974       -4.003329
 H         -10.247124      -32.042137       -5.968390
 H          -9.488274      -32.586140       -4.489683
 H         -11.134377      -29.778107       -2.363185
 H         -10.018120      -31.178373       -2.291215
 H          -8.746435      -30.191378       -5.995564
 H          -7.746883      -31.576868       -5.559446
 H          -8.684280      -28.938644       -2.360533
 H          -9.515993      -28.584490       -3.841517
 H          -7.230742      -29.367413       -4.312492
 H          -7.615724      -30.934492       -3.300107
