20
 generated by VMD
 C         -40.551235     -117.075928      -34.530258
 N         -39.488506     -116.668465      -34.737370
 H         -41.820656     -117.154366      -37.720783
 H         -41.320339     -117.706039      -34.248241
 C         -42.503254     -116.360458      -37.794693
 C         -43.074127     -116.137360      -39.233387
 C         -43.524517     -116.089333      -36.685062
 C         -44.371609     -116.967751      -39.387768
 C         -44.808041     -116.925499      -36.956860
 C         -45.459946     -116.660019      -38.346008
 H         -42.283207     -116.495056      -39.933495
 H         -43.321297     -115.090881      -39.420464
 H         -42.982735     -116.347740      -35.752586
 H         -43.815697     -114.977829      -36.772453
 H         -44.162052     -118.001839      -39.395683
 H         -44.673531     -116.777405      -40.418732
 H         -45.501213     -116.631897      -36.148643
 H         -44.657845     -118.086342      -36.950722
 H         -46.480152     -117.246399      -38.550591
 H         -45.877140     -115.607742      -38.464138
