20
 generated by VMD
 C         -75.898895     -202.526657      -66.370712
 N         -76.704887     -202.927841      -65.646179
 H         -75.651131     -200.333725      -68.641487
 H         -75.021454     -202.154587      -66.933624
 C         -74.937950     -199.675552      -69.068336
 C         -74.748795     -198.325867      -68.453918
 C         -73.971161     -200.085785      -70.098244
 C         -73.408516     -197.570999      -68.519257
 C         -73.178993     -198.914536      -70.734932
 C         -72.676483     -197.704361      -69.786621
 H         -75.082939     -198.236023      -67.422310
 H         -75.451500     -197.757355      -68.991440
 H         -73.221443     -200.735519      -69.553986
 H         -74.490051     -200.606644      -70.877151
 H         -72.739883     -197.815994      -67.645493
 H         -73.556160     -196.491089      -68.262512
 H         -73.815895     -198.326157      -71.335136
 H         -72.431061     -199.370392      -71.314354
 H         -71.566620     -197.821564      -69.520363
 H         -72.672279     -196.801437      -70.273827
