20
 generated by VMD
 C         -74.938843     -201.709900      -66.613548
 N         -74.911583     -201.544220      -65.480911
 H         -76.205910     -199.417938      -69.064819
 H         -75.107170     -201.845840      -67.680786
 C         -75.267456     -198.879395      -69.014091
 C         -74.928741     -197.584839      -68.398155
 C         -74.305855     -199.551239      -69.890076
 C         -73.422638     -197.597946      -67.963493
 C         -73.310806     -198.494095      -70.320099
 C         -72.588989     -197.677979      -69.228706
 H         -75.643562     -197.522018      -67.530472
 H         -75.181229     -196.780075      -68.996651
 H         -73.779594     -200.341797      -69.348007
 H         -74.856583     -199.934601      -70.744041
 H         -73.356590     -198.519913      -67.399979
 H         -73.228813     -196.710556      -67.307434
 H         -73.777275     -197.880890      -71.064690
 H         -72.477600     -198.939728      -70.900841
 H         -71.652992     -198.090424      -68.912415
 H         -72.394302     -196.572327      -69.607918
