20
 generated by VMD
 C         -48.544571     -126.258171      -38.707916
 N         -49.150295     -127.266006      -38.533833
 H         -46.129841     -123.651421      -38.483070
 H         -48.056194     -125.311195      -38.614307
 C         -45.565872     -123.405273      -39.281441
 C         -44.377804     -124.346390      -39.589428
 C         -45.630188     -122.151520      -40.045555
 C         -44.328438     -124.526237      -41.098900
 C         -45.506577     -122.431007      -41.515388
 C         -44.082478     -123.214760      -41.769691
 H         -44.694958     -125.289490      -39.186329
 H         -43.437225     -124.113365      -39.010635
 H         -46.588123     -121.726959      -39.844887
 H         -44.987225     -121.435402      -39.531536
 H         -45.187740     -125.050133      -41.571156
 H         -43.479568     -125.282631      -41.263363
 H         -45.386715     -121.408073      -42.027840
 H         -46.322346     -122.888329      -42.109085
 H         -43.882233     -123.475014      -42.832310
 H         -43.212555     -122.674774      -41.469391
