20
 generated by VMD
 C          -3.436459      -17.378090        2.278290
 N          -3.224403      -18.394381        1.860051
 H          -5.616311      -20.259739        0.699331
 H          -5.936869      -20.801895       -0.977074
 C          -6.044599      -19.954035       -0.278834
 C          -5.382214      -18.687988       -0.748372
 C          -7.544190      -19.776493        0.018634
 C          -6.166219      -18.181278       -2.029145
 C          -8.290605      -19.441095       -1.226140
 C          -7.712785      -18.169891       -1.735611
 H          -4.330970      -18.882153       -1.094542
 H          -5.313800      -17.884327        0.002135
 H          -7.880064      -20.718803        0.471657
 H          -7.754686      -19.047937        0.856233
 H          -5.916015      -18.747435       -2.898806
 H          -5.816063      -17.167713       -2.241027
 H          -9.331981      -19.275974       -0.971749
 H          -8.276320      -20.212719       -1.947443
 H          -8.316605      -17.719547       -2.527765
 H          -7.868273      -17.442720       -0.888056
