20
 generated by VMD
 C         -68.186470     -179.307236      -58.374069
 N         -67.282440     -178.871185      -57.808228
 H         -66.007729     -176.742462      -59.212093
 H         -68.966049     -179.865982      -58.900814
 C         -65.463768     -175.762787      -59.392193
 C         -65.981903     -174.788589      -60.422688
 C         -64.039894     -175.925385      -59.695152
 C         -65.256294     -173.408798      -60.299385
 C         -63.213558     -174.638565      -59.694275
 C         -63.740658     -173.629471      -60.704395
 H         -67.044327     -174.800781      -60.251610
 H         -65.755722     -175.099411      -61.552330
 H         -63.596565     -176.526566      -58.953770
 H         -63.867691     -176.427200      -60.627983
 H         -65.542007     -173.022049      -59.301998
 H         -65.823860     -172.709213      -60.979389
 H         -62.114262     -174.798676      -59.869514
 H         -63.236328     -174.328918      -58.655418
 H         -63.101582     -172.798630      -60.508434
 H         -63.549202     -174.113068      -61.746666
