20
 generated by VMD
 C         -30.360415      -74.126633      -20.775249
 N         -30.123058      -75.231018      -20.430399
 H         -27.437389      -74.583855      -19.374165
 H         -30.375862      -73.272621      -21.332180
 C         -26.631994      -74.449989      -20.119690
 C         -26.160301      -75.606758      -20.990269
 C         -25.956078      -73.045624      -20.384220
 C         -26.024336      -75.201790      -22.550503
 C         -25.878477      -72.795410      -21.856146
 C         -25.153368      -73.886429      -22.655466
 H         -27.006979      -76.464165      -21.069721
 H         -25.173378      -76.011803      -20.653633
 H         -26.659418      -72.382736      -19.920353
 H         -24.954981      -73.024796      -19.886562
 H         -27.032967      -75.217728      -22.975069
 H         -25.460581      -75.957855      -23.070204
 H         -25.266890      -71.850998      -22.041628
 H         -26.918396      -72.424110      -22.251095
 H         -24.938629      -73.589172      -23.695898
 H         -24.119287      -74.001305      -22.273504
