20
 generated by VMD
 C         -12.390476      -31.746294       -8.893491
 N         -12.558097      -30.741089       -8.396610
 H         -10.685240      -34.875080       -7.563920
 H         -11.554428      -33.796608       -6.593511
 C         -11.214962      -34.812458       -6.651200
 C         -10.262728      -34.981598       -5.455665
 C         -12.343464      -35.788971       -6.673433
 C         -11.191644      -34.930267       -4.184127
 C         -13.158674      -35.755859       -5.393504
 C         -12.320661      -35.967896       -4.142151
 H          -9.570572      -34.131237       -5.385006
 H          -9.770444      -35.959648       -5.455201
 H         -13.040495      -35.571735       -7.494708
 H         -12.019115      -36.813171       -6.789498
 H         -11.616987      -33.904022       -4.168696
 H         -10.639882      -35.116802       -3.255636
 H         -13.837840      -36.579502       -5.493786
 H         -13.785323      -34.770634       -5.358346
 H         -13.020722      -35.742985       -3.268433
 H         -11.936658      -36.974087       -3.948397
