20
 generated by VMD
 C         -50.786789     -129.897217      -46.249672
 N         -50.855251     -130.214172      -45.154926
 H         -48.055534     -131.893555      -44.350163
 H         -50.515530     -129.286575      -47.047386
 C         -47.751274     -131.920502      -43.345974
 C         -48.248508     -133.192535      -42.555687
 C         -48.011009     -130.562439      -42.640976
 C         -47.737000     -133.079971      -41.118538
 C         -47.458904     -130.599792      -41.218014
 C         -48.022141     -131.724854      -40.463207
 H         -47.891720     -134.033829      -43.074577
 H         -49.414272     -133.311462      -42.488865
 H         -47.520210     -129.739746      -43.358349
 H         -49.096088     -130.374527      -42.553143
 H         -46.672421     -133.058212      -41.071213
 H         -48.141945     -133.733047      -40.374142
 H         -47.579700     -129.615753      -40.815933
 H         -46.381355     -130.782913      -41.528519
 H         -47.510345     -131.647354      -39.455708
 H         -49.068443     -131.695679      -40.107628
