20
 generated by VMD
 C          -1.957454      -16.635109        2.294919
 N          -1.535923      -17.524679        2.828624
 H          -5.193549      -16.629343        0.806324
 H          -4.778773      -17.846941       -0.416232
 C          -5.622332      -17.243500        0.033699
 C          -6.319400      -16.575945       -1.080497
 C          -6.517233      -18.243155        0.755472
 C          -7.173674      -17.405960       -1.980625
 C          -7.152061      -19.241774       -0.254221
 C          -8.044862      -18.363924       -1.145232
 H          -5.669940      -15.972458       -1.760320
 H          -7.021071      -15.915844       -0.622279
 H          -5.970151      -18.729235        1.479645
 H          -7.253566      -17.654030        1.217248
 H          -6.544988      -17.957230       -2.728050
 H          -7.774417      -16.735661       -2.590989
 H          -7.693195      -20.000477        0.361358
 H          -6.403903      -19.756405       -0.847988
 H          -8.562704      -19.010466       -1.858515
 H          -8.894200      -17.857359       -0.605824
