20
 generated by VMD
 C         -12.671669      -30.201780       -8.204967
 N         -13.237182      -30.738401       -7.407261
 H         -11.083600      -30.501078       -5.262945
 H         -10.636712      -31.079880       -3.638338
 C         -10.827962      -31.357420       -4.673379
 C          -9.524794      -31.947037       -5.189241
 C         -12.013579      -32.411846       -4.737181
 C          -9.124016      -33.209728       -4.547384
 C         -11.576699      -33.729164       -4.103899
 C         -10.252537      -34.210449       -4.528061
 H          -8.771473      -31.117205       -5.129741
 H          -9.604793      -32.085545       -6.256640
 H         -12.968881      -32.021408       -4.322471
 H         -12.261242      -32.674637       -5.782160
 H          -8.825119      -33.028877       -3.462541
 H          -8.214832      -33.730995       -4.982301
 H         -12.319842      -34.485069       -4.186337
 H         -11.483079      -33.635986       -2.969727
 H          -9.986846      -35.055256       -3.909915
 H         -10.396212      -34.682766       -5.552180
