20
 generated by VMD
 C         -50.397713     -145.140671      -45.147076
 N         -50.174034     -145.113144      -44.053764
 H         -52.990166     -143.380936      -45.910717
 H         -50.450233     -145.090851      -46.236599
 C         -53.466114     -143.062256      -46.827114
 C         -52.579407     -143.106537      -48.033257
 C         -54.702961     -142.227127      -46.943172
 C         -53.379929     -143.173721      -49.427589
 C         -55.360336     -142.411072      -48.252312
 C         -54.517437     -142.242844      -49.446144
 H         -51.833035     -143.981979      -48.130623
 H         -52.028820     -142.165955      -48.021618
 H         -55.487289     -142.384445      -46.185043
 H         -54.483013     -141.167938      -46.694168
 H         -53.816986     -144.227264      -49.595284
 H         -52.753376     -143.059738      -50.370274
 H         -56.151001     -141.611649      -48.499336
 H         -55.784523     -143.412598      -48.267944
 H         -55.099556     -142.429596      -50.386852
 H         -54.204102     -141.159348      -49.407314
