20
 generated by VMD
 C         -75.920189     -202.550537      -66.400421
 N         -76.728394     -202.947830      -65.636940
 H         -75.763985     -200.372757      -68.707489
 H         -75.024017     -202.182648      -66.847786
 C         -74.944168     -199.688110      -69.039734
 C         -74.727280     -198.310287      -68.429741
 C         -73.950935     -200.117416      -70.098778
 C         -73.408974     -197.582672      -68.536087
 C         -73.193626     -198.922775      -70.753922
 C         -72.656937     -197.697189      -69.792976
 H         -75.112907     -198.256348      -67.389099
 H         -75.434456     -197.677368      -69.063797
 H         -73.371658     -200.828903      -69.571335
 H         -74.408981     -200.701660      -70.927322
 H         -72.852829     -197.803452      -67.640144
 H         -73.644386     -196.521164      -68.291473
 H         -73.839485     -198.339249      -71.490860
 H         -72.263588     -199.374130      -71.299751
 H         -71.570900     -197.806763      -69.543610
 H         -72.727570     -196.638153      -70.311676
