20
 generated by VMD
 C         -69.583542     -181.223526      -61.191872
 N         -69.324654     -180.219482      -61.752998
 H         -67.387184     -179.064133      -59.604515
 H         -69.646904     -182.138153      -60.670380
 C         -66.326004     -178.699005      -59.815784
 C         -65.547966     -179.010666      -61.086510
 C         -65.671173     -177.790604      -58.836605
 C         -65.153046     -177.719528      -61.761009
 C         -65.223129     -176.501114      -59.464127
 C         -64.536598     -176.651413      -60.854599
 H         -66.225540     -179.546997      -61.728512
 H         -64.815742     -179.797638      -60.860485
 H         -66.372513     -177.556015      -58.033649
 H         -64.759865     -178.310364      -58.366585
 H         -66.028374     -177.317108      -62.091942
 H         -64.410210     -177.894409      -62.487930
 H         -64.365738     -176.148499      -58.872604
 H         -66.059784     -175.856308      -59.366684
 H         -64.311813     -175.676682      -61.304016
 H         -63.522663     -177.073578      -60.557106
