20
 generated by VMD
 C         -22.260372      -55.052097      -17.319881
 N         -22.754349      -55.071503      -18.322704
 H         -20.986689      -56.136303      -14.292846
 H         -21.981289      -55.426300      -16.408873
 C         -20.597101      -57.217247      -14.177304
 C         -20.842226      -57.995068      -12.923150
 C         -19.601366      -57.856018      -15.209996
 C         -20.833723      -59.544670      -13.153259
 C         -19.717878      -59.361927      -15.251328
 C         -19.704662      -60.072639      -13.944688
 H         -21.900148      -57.735596      -12.622581
 H         -20.141148      -57.650433      -12.172246
 H         -19.896914      -57.483421      -16.191729
 H         -18.552303      -57.467300      -15.004775
 H         -21.681221      -59.777283      -13.812954
 H         -21.036295      -60.075962      -12.239400
 H         -18.897793      -59.835854      -15.806078
 H         -20.690203      -59.572815      -15.692470
 H         -19.896326      -61.152821      -14.050735
 H         -18.815256      -59.955883      -13.418607
