20
 generated by VMD
 C         -59.892750     -152.108444      -50.364658
 N         -58.951939     -152.772659      -50.077698
 H         -56.796825     -151.052063      -48.812569
 H         -60.771294     -151.538422      -50.487034
 C         -55.856461     -150.746613      -49.293083
 C         -54.845787     -151.748093      -49.680462
 C         -55.336594     -149.279434      -49.099262
 C         -54.306496     -151.383347      -51.032845
 C         -54.816223     -148.985123      -50.524414
 C         -53.866306     -150.016129      -51.174057
 H         -55.341145     -152.693436      -49.771721
 H         -53.945660     -151.833542      -48.948193
 H         -56.148479     -148.637939      -48.626030
 H         -54.500576     -149.324036      -48.383553
 H         -55.195137     -151.325272      -51.717461
 H         -53.650452     -152.165237      -51.382999
 H         -54.274940     -147.956009      -50.501678
 H         -55.668629     -148.722061      -51.147598
 H         -53.867672     -149.855545      -52.292713
 H         -52.890537     -149.932770      -50.902859
