20
 generated by VMD
 C          -4.116073      -20.721260        3.076035
 N          -4.640926      -19.765226        2.850324
 H          -5.166578      -18.926434       -0.298422
 H          -5.717724      -20.515318       -0.361861
 C          -5.903411      -19.563599       -0.856459
 C          -5.670978      -19.654455       -2.381161
 C          -7.293522      -19.095839       -0.469070
 C          -6.817789      -20.422718       -3.011955
 C          -8.434361      -19.770794       -1.254915
 C          -8.135403      -19.625347       -2.769994
 H          -4.661346      -20.158775       -2.481627
 H          -5.486708      -18.663593       -2.799908
 H          -7.464926      -19.186607        0.530625
 H          -7.385722      -18.075647       -0.692548
 H          -6.824097      -21.476860       -2.592535
 H          -6.703624      -20.567520       -4.090048
 H          -9.385663      -19.257616       -0.979579
 H          -8.482852      -20.846739       -0.919925
 H          -8.987119      -20.075684       -3.344713
 H          -8.055489      -18.619101       -3.215006
