20
 generated by VMD
 C         -27.665319      -81.150665      -27.475731
 N         -28.791985      -81.462524      -27.571608
 H         -30.419132      -83.038986      -25.286457
 H         -26.624846      -80.801399      -27.381819
 C         -30.569838      -84.014786      -24.785625
 C         -30.372147      -84.051186      -23.320272
 C         -31.253147      -85.134956      -25.538805
 C         -31.679209      -84.477760      -22.588915
 C         -32.542850      -85.532104      -24.837177
 C         -32.353722      -85.749031      -23.285610
 H         -30.142603      -83.124237      -22.840132
 H         -29.582140      -84.837379      -22.957075
 H         -31.250271      -84.763237      -26.578720
 H         -30.625813      -86.041000      -25.528273
 H         -32.394882      -83.708061      -22.484320
 H         -31.262499      -84.825584      -21.532146
 H         -32.807728      -86.523392      -25.449085
 H         -33.335960      -84.797424      -24.967661
 H         -33.318539      -86.065308      -22.887629
 H         -31.706692      -86.679039      -23.280821
