20
 generated by VMD
 C         -59.917416     -152.117920      -50.211990
 N         -58.884941     -152.691528      -50.112007
 H         -56.760918     -151.027847      -48.888199
 H         -60.840706     -151.553467      -50.447224
 C         -55.735928     -150.744308      -49.129463
 C         -54.835201     -151.784073      -49.589817
 C         -55.283287     -149.306808      -49.260849
 C         -54.455696     -151.375336      -51.125774
 C         -54.816933     -148.845856      -50.587475
 C         -53.807205     -149.817749      -51.072903
 H         -55.337444     -152.731110      -49.503471
 H         -53.810730     -151.798538      -49.024326
 H         -56.123974     -148.641571      -48.880825
 H         -54.515610     -149.242722      -48.473587
 H         -55.329144     -151.470154      -51.845058
 H         -53.653500     -152.046021      -51.392273
 H         -54.456310     -147.745132      -50.556492
 H         -55.690434     -148.777283      -51.299374
 H         -53.429333     -149.544769      -52.092106
 H         -52.972813     -149.882278      -50.483379
