20
 generated by VMD
 C         -30.120192      -79.362411      -25.913792
 N         -30.961674      -78.606461      -26.096546
 H         -28.376150      -82.704109      -25.643637
 H         -29.407373      -80.043549      -25.426695
 C         -28.950281      -82.660942      -24.664274
 C         -28.115677      -81.899689      -23.606451
 C         -30.002523      -83.689041      -24.260483
 C         -29.184029      -81.194504      -22.678144
 C         -30.903532      -83.125923      -23.068806
 C         -30.068050      -82.250725      -22.063513
 H         -27.428240      -81.171097      -24.018332
 H         -27.499893      -82.641403      -22.959127
 H         -30.613024      -84.131805      -25.031399
 H         -29.368238      -84.453362      -23.894869
 H         -29.921013      -80.350121      -23.109060
 H         -28.555300      -80.651772      -21.988794
 H         -31.393353      -83.921196      -22.635418
 H         -31.693970      -82.495384      -23.485544
 H         -30.673576      -81.904938      -21.284590
 H         -29.479027      -82.953651      -21.481836
