20
 generated by VMD
 C         -49.078892     -126.839485      -38.808483
 N         -49.960720     -127.462952      -38.398251
 H         -46.286430     -124.290955      -38.706223
 H         -48.222755     -126.247406      -39.152199
 C         -45.793835     -124.016586      -39.717316
 C         -44.494473     -124.827377      -39.825611
 C         -45.963760     -122.705040      -40.309635
 C         -43.887833     -124.644470      -41.170124
 C         -45.277313     -122.571075      -41.659801
 C         -43.780521     -123.165695      -41.604439
 H         -44.719204     -125.920792      -39.736076
 H         -43.697620     -124.598701      -39.105900
 H         -46.994656     -122.532555      -40.534126
 H         -45.800964     -121.809227      -39.675659
 H         -44.289795     -125.203270      -41.975002
 H         -42.901718     -125.091164      -41.138577
 H         -45.384369     -121.525200      -42.072937
 H         -45.950348     -122.970123      -42.415668
 H         -43.297398     -123.225952      -42.679859
 H         -43.072128     -122.523598      -41.052380
