20
 generated by VMD
 C         -12.807675      -28.673107       -5.925927
 N         -13.070977      -28.696924       -7.005864
 H         -12.134565      -31.279980       -4.992282
 H         -11.129090      -29.803204       -5.097270
 C         -11.085323      -30.903976       -4.779650
 C         -10.110842      -31.707254       -5.626617
 C         -10.869067      -31.062771       -3.256046
 C          -8.703368      -31.456131       -5.131338
 C          -9.365829      -30.826902       -2.840787
 C          -8.467913      -31.686388       -3.714632
 H         -10.116940      -31.414667       -6.612185
 H         -10.247991      -32.827236       -5.642591
 H         -11.480353      -30.273312       -2.810024
 H         -11.238161      -31.976360       -2.882362
 H          -8.347710      -30.474625       -5.418110
 H          -8.103050      -32.105278       -5.731321
 H          -9.217004      -31.046522       -1.782119
 H          -9.173380      -29.750723       -3.033027
 H          -7.369771      -31.465376       -3.445322
 H          -8.584108      -32.746952       -3.450014
