20
 generated by VMD
 C          -7.075972      -23.179880        2.687864
 N          -6.084144      -22.639910        2.734700
 H          -6.397578      -21.276953       -0.076462
 H          -8.006410      -21.711016       -0.775205
 C          -7.022470      -21.226200       -1.037223
 C          -6.323261      -22.086079       -2.088401
 C          -7.301739      -19.808634       -1.564376
 C          -7.091416      -22.146742       -3.435259
 C          -8.004116      -19.845961       -2.952173
 C          -7.313536      -20.766205       -3.996757
 H          -6.291743      -23.059929       -1.692230
 H          -5.326829      -21.607489       -2.354048
 H          -7.820056      -19.111656       -0.939316
 H          -6.355962      -19.268066       -1.634632
 H          -8.050774      -22.696394       -3.342221
 H          -6.510123      -22.810413       -4.106038
 H          -8.312134      -18.890297       -3.453647
 H          -9.025935      -20.228649       -2.688125
 H          -7.870966      -20.850098       -4.956324
 H          -6.357482      -20.206144       -4.206139
