20
 generated by VMD
 C         -59.746376     -152.073013      -49.808086
 N         -58.753262     -152.447617      -50.155441
 H         -56.466198     -151.011826      -48.459408
 H         -60.707275     -151.800262      -49.358593
 C         -55.741283     -150.597931      -49.150330
 C         -54.825600     -151.625397      -49.643700
 C         -55.303341     -149.194443      -49.218395
 C         -54.302299     -151.177719      -51.069973
 C         -54.848179     -148.720840      -50.590889
 C         -53.828220     -149.685562      -51.087757
 H         -55.363983     -152.528717      -49.875217
 H         -54.039108     -151.794983      -48.824726
 H         -56.127876     -148.507889      -48.834393
 H         -54.457512     -149.092072      -48.523079
 H         -55.000145     -151.557739      -51.820801
 H         -53.371666     -151.732559      -51.175613
 H         -54.369606     -147.638031      -50.537766
 H         -55.599129     -148.553864      -51.345013
 H         -53.433460     -149.393707      -52.107292
 H         -53.015335     -149.680725      -50.447121
