20
 generated by VMD
 C         -40.158016     -100.271057      -30.264158
 N         -40.833591     -100.385986      -31.175098
 H         -37.042206     -102.252762      -30.798325
 H         -39.550896     -100.215614      -29.308588
 C         -36.587505     -101.331337      -30.844105
 C         -36.416237     -100.819168      -32.237755
 C         -35.382866     -101.256157      -30.019518
 C         -35.998386      -99.367195      -32.238350
 C         -34.944893      -99.751244      -30.219872
 C         -34.732395      -99.269310      -31.509806
 H         -37.340359     -100.765450      -32.788666
 H         -35.737392     -101.365662      -32.860191
 H         -35.576973     -101.443527      -28.920685
 H         -34.565605     -101.871941      -30.271633
 H         -36.690968      -98.657951      -31.784994
 H         -35.881741      -98.990158      -33.326294
 H         -34.007172      -99.597122      -29.583408
 H         -35.685551      -99.154320      -29.695740
 H         -34.350689      -98.300850      -31.414768
 H         -33.967339      -99.810249      -32.036240
