20
 generated by VMD
 C         -67.523491     -179.668915      -58.456604
 N         -68.524086     -180.218826      -58.401421
 H         -67.175484     -176.456573      -59.901382
 H         -66.598305     -179.092865      -58.442783
 C         -66.081879     -176.049301      -60.051342
 C         -66.012756     -175.156250      -61.234962
 C         -64.834290     -176.528671      -59.337650
 C         -64.967873     -174.060867      -61.025555
 C         -63.656208     -175.561279      -59.399109
 C         -63.608181     -174.524002      -60.525059
 H         -67.022972     -174.646851      -61.306416
 H         -65.874649     -175.442673      -62.300537
 H         -65.165764     -176.811584      -58.393589
 H         -64.640694     -177.437317      -59.931423
 H         -65.326164     -173.203430      -60.346001
 H         -64.893906     -173.482635      -61.950134
 H         -62.616940     -176.023560      -59.375111
 H         -63.835522     -174.926224      -58.531864
 H         -62.815334     -173.778503      -60.446747
 H         -63.228481     -174.970230      -61.511768
