20
 generated by VMD
 C         -57.920341     -150.612534      -48.698036
 N         -58.014793     -151.799332      -48.615589
 H         -55.280327     -149.655731      -47.536182
 H         -57.859936     -149.539047      -48.721481
 C         -54.982971     -149.236694      -48.539169
 C         -54.228867     -150.180847      -49.431736
 C         -54.943211     -147.779373      -48.878387
 C         -54.135197     -149.719742      -50.895084
 C         -55.012939     -147.427383      -50.388950
 C         -54.014996     -148.234222      -51.149094
 H         -54.580086     -151.200623      -49.445911
 H         -53.305618     -150.223648      -49.007370
 H         -55.825897     -147.326462      -48.439644
 H         -54.069057     -147.188919      -48.501171
 H         -55.132545     -149.957550      -51.303474
 H         -53.451019     -150.427856      -51.346359
 H         -54.847324     -146.287872      -50.583332
 H         -55.907120     -147.561707      -51.000015
 H         -54.074871     -147.924942      -52.124870
 H         -53.067955     -147.794739      -50.782330
