20
 generated by VMD
 C         -30.342850      -75.227081      -21.011251
 N         -31.477051      -75.309464      -20.903471
 H         -27.495043      -75.010025      -19.628613
 H         -29.389135      -75.184441      -21.529444
 C         -27.059122      -74.674179      -20.537218
 C         -26.620903      -75.855095      -21.345518
 C         -26.007847      -73.625572      -20.382141
 C         -26.076309      -75.531052      -22.657509
 C         -25.341770      -73.227966      -21.772768
 C         -24.870264      -74.474968      -22.585867
 H         -27.512238      -76.533455      -21.375633
 H         -25.772133      -76.315590      -20.806755
 H         -26.425413      -72.796753      -19.936672
 H         -25.285368      -73.905540      -19.670017
 H         -26.907854      -75.146988      -23.321430
 H         -25.732897      -76.466614      -23.137878
 H         -24.532175      -72.513054      -21.613634
 H         -25.849108      -72.698486      -22.529665
 H         -24.603792      -74.163910      -23.583143
 H         -24.014999      -75.013786      -22.199070
