20
 generated by VMD
 C         -80.650230     -205.704010      -72.011551
 N         -79.939354     -206.605713      -72.006874
 H         -77.025253     -204.324829      -71.850540
 H         -81.212563     -204.840591      -72.249817
 C         -76.067299     -204.665192      -71.468018
 C         -75.072212     -203.649139      -71.123589
 C         -76.237999     -205.917404      -70.681778
 C         -74.330437     -203.801086      -69.727356
 C         -75.576172     -205.793564      -69.251633
 C         -74.173058     -205.157043      -69.224342
 H         -75.581161     -202.690811      -71.134399
 H         -74.375252     -203.587463      -72.001068
 H         -77.336723     -206.179749      -70.728233
 H         -75.689156     -206.820694      -71.199677
 H         -74.885895     -203.174988      -69.092056
 H         -73.323051     -203.465149      -69.987068
 H         -75.403175     -206.806427      -68.809113
 H         -76.320015     -205.315552      -68.544357
 H         -73.757416     -205.090942      -68.201653
 H         -73.597412     -205.832626      -69.861565
