20
 generated by VMD
 C         -51.008236     -130.857483      -46.057831
 N         -50.418766     -130.099411      -46.758034
 H         -47.915466     -132.230576      -44.520344
 H         -51.702389     -131.508545      -45.568607
 C         -48.161823     -132.334213      -43.439682
 C         -48.484146     -133.658676      -42.934322
 C         -48.155453     -131.228912      -42.533207
 C         -48.210133     -133.988937      -41.484997
 C         -47.854820     -131.506729      -41.051945
 C         -48.607334     -132.777786      -40.554993
 H         -48.019630     -134.426178      -43.546894
 H         -49.578144     -133.770096      -43.148014
 H         -47.342587     -130.434067      -42.711102
 H         -49.036213     -130.599106      -42.599072
 H         -47.125660     -134.240509      -41.372005
 H         -48.713715     -134.914276      -41.121433
 H         -48.087959     -130.678696      -40.508247
 H         -46.787659     -131.734863      -40.852993
 H         -48.398857     -133.212631      -39.558720
 H         -49.639919     -132.566772      -40.700249
