20
 generated by VMD
 C         -58.567394     -160.623108      -56.853832
 N         -58.615650     -159.898697      -57.728661
 H         -58.912056     -163.504807      -54.968479
 H         -58.574963     -161.287659      -56.026310
 C         -59.760975     -163.452316      -54.298996
 C         -59.480072     -163.204498      -52.886971
 C         -61.088226     -163.448242      -54.810005
 C         -60.462624     -162.209198      -52.202003
 C         -61.870152     -162.283188      -54.222912
 C         -61.806374     -162.183609      -52.682674
 H         -58.487213     -162.760834      -52.813725
 H         -59.759521     -164.146225      -52.341011
 H         -61.004608     -163.243698      -55.874817
 H         -61.532448     -164.415146      -54.665794
 H         -60.110168     -161.133774      -52.314030
 H         -60.425625     -162.321686      -51.136608
 H         -62.993813     -162.386826      -54.398853
 H         -61.697453     -161.212769      -54.730019
 H         -62.327530     -161.288589      -52.395947
 H         -62.415340     -163.095901      -52.390316
