20
 generated by VMD
 C         -65.593521     -177.651230      -56.707157
 N         -66.128632     -176.675034      -56.417263
 H         -65.050911     -175.368637      -59.564312
 H         -65.118301     -178.564651      -56.948185
 C         -64.585777     -174.420441      -59.460243
 C         -65.416023     -173.455963      -58.669460
 C         -63.472424     -173.996796      -60.397503
 C         -65.001709     -171.902481      -58.900425
 C         -63.166340     -172.547729      -60.308704
 C         -64.369820     -171.631699      -60.249199
 H         -65.111084     -173.506409      -57.561157
 H         -66.468666     -173.608078      -58.803177
 H         -62.555668     -174.643326      -60.030231
 H         -63.772110     -174.294678      -61.473450
 H         -64.283592     -171.577469      -58.053276
 H         -65.936707     -171.232285      -58.810364
 H         -62.654041     -172.324310      -61.216206
 H         -62.492157     -172.319946      -59.471340
 H         -64.054260     -170.617477      -60.230164
 H         -65.095398     -171.818069      -61.129951
