20
 generated by VMD
 C         -49.710228     -127.748703      -40.264462
 N         -50.639347     -127.793343      -40.987881
 H         -46.990929     -127.408638      -42.217510
 H         -48.744293     -127.727585      -39.722282
 C         -46.746513     -126.777153      -41.361134
 C         -45.830341     -127.238243      -40.311237
 C         -46.862228     -125.327339      -41.478970
 C         -44.419601     -126.797272      -40.518536
 C         -45.458061     -124.736320      -41.832989
 C         -44.418194     -125.213745      -40.779339
 H         -45.964092     -128.338013      -40.134422
 H         -46.235741     -126.736496      -39.416973
 H         -47.585533     -125.117989      -42.223099
 H         -47.075043     -124.944687      -40.373905
 H         -44.016048     -127.095711      -41.493721
 H         -43.842510     -127.123932      -39.673409
 H         -45.619167     -123.632744      -41.851212
 H         -45.173656     -124.959999      -42.813538
 H         -43.394321     -124.736694      -41.049225
 H         -44.641666     -124.751999      -39.777122
