20
 generated by VMD
 C         -48.022011     -140.133652      -45.886726
 N         -46.955936     -139.829514      -45.688789
 H         -50.960903     -139.056015      -45.201946
 H         -49.069828     -140.152908      -46.035423
 C         -51.941448     -139.245087      -45.624050
 C         -52.160160     -139.450958      -47.072430
 C         -53.251305     -139.178146      -44.735123
 C         -53.184151     -140.490906      -47.424015
 C         -54.148838     -140.304260      -45.073372
 C         -54.371872     -140.312927      -46.565224
 H         -51.250114     -139.708191      -47.511425
 H         -52.576580     -138.533142      -47.522873
 H         -52.839100     -139.322266      -43.752422
 H         -53.946419     -138.380280      -44.905567
 H         -52.863853     -141.560410      -47.276253
 H         -53.451145     -140.464188      -48.556229
 H         -55.013565     -140.150604      -44.465080
 H         -53.796284     -141.215424      -44.637585
 H         -55.199425     -141.148438      -46.601612
 H         -54.888203     -139.343384      -46.792694
