20
 generated by VMD
 C         -50.806759     -129.683212      -45.271320
 N         -50.953487     -129.613297      -44.158970
 H         -49.107994     -128.903564      -42.148022
 H         -50.736122     -129.510559      -46.299217
 C         -48.206333     -129.141403      -41.566631
 C         -47.939114     -130.563034      -41.273300
 C         -47.333702     -127.955360      -41.202606
 C         -46.454113     -130.887131      -41.357571
 C         -45.864986     -128.376480      -41.360329
 C         -45.662384     -129.720703      -40.672409
 H         -48.565495     -131.250854      -41.950253
 H         -48.314934     -130.736160      -40.326736
 H         -47.616131     -127.230453      -41.895660
 H         -47.616920     -127.605988      -40.114578
 H         -46.091068     -130.886124      -42.441147
 H         -46.408649     -131.840897      -40.802937
 H         -45.347366     -127.546280      -40.882786
 H         -45.719444     -128.336380      -42.423779
 H         -44.577053     -129.925797      -40.625076
 H         -46.017464     -129.709961      -39.610691
