20
 generated by VMD
 C         -19.394167      -62.423279      -17.480280
 N         -20.168188      -62.334721      -16.659864
 H         -22.351868      -64.171181      -16.664457
 H         -18.856894      -62.549919      -18.483648
 C         -23.209335      -64.666245      -17.065250
 C         -23.634764      -64.223717      -18.504381
 C         -24.230576      -65.156815      -16.126762
 C         -24.622421      -65.098213      -19.184126
 C         -25.168272      -66.105064      -16.882965
 C         -25.695866      -65.558739      -18.234114
 H         -22.765537      -63.937431      -19.220236
 H         -24.215931      -63.287682      -18.279198
 H         -23.620228      -65.605057      -15.213977
 H         -24.699909      -64.263359      -15.664545
 H         -24.098217      -66.017258      -19.478479
 H         -25.009012      -64.593323      -20.043715
 H         -25.971750      -66.499367      -16.224527
 H         -24.457254      -66.877701      -17.161444
 H         -26.018951      -66.465431      -18.798347
 H         -26.467751      -64.859543      -18.182461
