20
 generated by VMD
 C         -58.539192     -159.061615      -57.561596
 N         -59.227791     -158.259109      -57.970497
 H         -59.539112     -159.579025      -54.331600
 H         -57.942856     -159.855392      -57.155159
 C         -59.600899     -160.374847      -53.634796
 C         -58.511902     -160.637527      -52.695240
 C         -60.580593     -161.446167      -53.837402
 C         -59.153057     -160.856644      -51.328484
 C         -61.189739     -161.676605      -52.474998
 C         -60.135487     -161.977234      -51.401974
 H         -57.877224     -159.725845      -52.696373
 H         -57.890621     -161.440430      -52.922482
 H         -61.222706     -161.067200      -54.646011
 H         -60.243229     -162.471451      -54.133781
 H         -59.643341     -159.991730      -50.821236
 H         -58.420563     -161.207413      -50.675323
 H         -61.915165     -162.560974      -52.536659
 H         -61.844608     -160.829910      -52.126965
 H         -60.711506     -162.188858      -50.439686
 H         -59.637932     -162.813202      -51.825016
