20
 generated by VMD
 C         -29.720671      -87.952255      -25.236301
 N         -29.058662      -88.842194      -25.454428
 H         -31.375288      -89.486526      -27.765087
 H         -30.278999      -86.974693      -25.172157
 C         -32.392334      -89.788940      -27.530672
 C         -32.856243      -89.711380      -26.029543
 C         -33.415131      -89.489799      -28.644815
 C         -33.452950      -88.262482      -25.843073
 C         -34.113899      -88.115295      -28.175344
 C         -34.642170      -88.180466      -26.759457
 H         -31.976368      -89.902824      -25.391401
 H         -33.781788      -90.358978      -25.920935
 H         -32.926708      -89.468895      -29.632555
 H         -34.094360      -90.373543      -28.681919
 H         -32.600830      -87.444344      -25.936693
 H         -33.699684      -88.198265      -24.788126
 H         -35.028324      -87.947533      -28.801500
 H         -33.547455      -87.236038      -28.375832
 H         -34.921673      -87.162804      -26.527834
 H         -35.294399      -89.038490      -26.611019
