20
 generated by VMD
 C         -38.501053     -111.407639      -36.220798
 N         -38.377132     -110.562721      -36.987995
 H         -40.380600     -114.441971      -34.952610
 H         -38.524147     -112.268494      -35.593525
 C         -41.407829     -114.234024      -35.143505
 C         -41.835835     -114.504517      -36.551479
 C         -42.148174     -113.342850      -34.257507
 C         -43.333141     -114.104034      -36.909569
 C         -43.622459     -113.153572      -34.710709
 C         -43.780373     -112.887283      -36.233234
 H         -41.672237     -115.588959      -36.879219
 H         -41.136330     -113.991364      -37.254066
 H         -42.335072     -113.609688      -33.232224
 H         -41.723930     -112.353355      -34.342422
 H         -43.880058     -115.077652      -36.636387
 H         -43.418476     -113.934395      -37.979465
 H         -43.980499     -112.363785      -34.144535
 H         -44.248276     -113.967491      -34.405876
 H         -44.898163     -112.743576      -36.319645
 H         -43.218063     -112.008278      -36.619324
