20
 generated by VMD
 C         -11.958688      -25.928001       -0.097161
 N         -12.956215      -26.197746       -0.516873
 H          -9.773411      -26.837658       -3.158622
 H          -9.521258      -25.726040       -4.451672
 C          -9.029689      -26.239992       -3.622390
 C          -7.991172      -27.245834       -4.174782
 C          -8.334792      -25.081341       -2.804744
 C          -6.731762      -26.656418       -4.735140
 C          -7.136155      -24.447973       -3.552480
 C          -6.125516      -25.560358       -3.877923
 H          -8.439493      -27.834732       -4.896861
 H          -7.714452      -27.789778       -3.256769
 H          -9.107033      -24.301628       -2.635377
 H          -8.041536      -25.431532       -1.826467
 H          -6.998103      -26.203697       -5.692603
 H          -5.973296      -27.422356       -4.829696
 H          -6.642618      -23.684551       -2.951744
 H          -7.533997      -24.012178       -4.446200
 H          -5.256004      -25.130241       -4.420534
 H          -5.806281      -26.039280       -2.924141
