20
 generated by VMD
 C         -14.028164      -28.091129       -3.024742
 N         -14.051748      -27.171940       -3.641703
 H         -10.387467      -28.186907       -2.928935
 H          -9.867279      -27.144941       -4.275379
 C          -9.499066      -27.857769       -3.500707
 C          -8.852590      -29.043867       -4.231421
 C          -8.481500      -27.240969       -2.585500
 C          -7.677143      -28.614109       -5.032436
 C          -7.134262      -26.826199       -3.281425
 C          -6.552249      -27.944021       -4.210679
 H          -9.577627      -29.482468       -4.997163
 H          -8.655138      -29.725222       -3.466250
 H          -8.911892      -26.351151       -2.125750
 H          -8.201165      -27.829689       -1.739014
 H          -7.958711      -27.855907       -5.807192
 H          -7.282319      -29.568695       -5.529480
 H          -6.401999      -26.487728       -2.524284
 H          -7.356347      -25.986206       -3.907557
 H          -5.758941      -27.550461       -4.853023
 H          -6.110807      -28.670485       -3.546229
