20
 generated by VMD
 C         -67.929321     -179.553528      -58.803829
 N         -68.099724     -179.756790      -59.948452
 H         -67.442162     -176.661133      -59.624401
 H         -67.762878     -179.250229      -57.746590
 C         -66.432076     -176.842789      -60.040401
 C         -66.121727     -176.198807      -61.424980
 C         -65.317627     -177.217880      -59.239849
 C         -64.988823     -175.146454      -61.362610
 C         -64.214996     -176.131912      -59.116825
 C         -63.892960     -175.553360      -60.413689
 H         -66.999924     -175.744598      -61.929756
 H         -65.781693     -177.031189      -62.025337
 H         -65.543640     -177.665527      -58.220669
 H         -64.769920     -177.975372      -59.751461
 H         -65.454346     -174.265747      -60.843418
 H         -64.746056     -174.871689      -62.339218
 H         -63.336472     -176.539093      -58.667213
 H         -64.573257     -175.319565      -58.445576
 H         -63.313602     -174.653671      -60.148094
 H         -63.257404     -176.169037      -61.003342
