20
 generated by VMD
 C         -79.770866     -207.024780      -73.512672
 N         -79.990013     -205.992645      -74.051376
 H         -78.249001     -205.245148      -70.478859
 H         -79.636055     -207.907028      -72.933380
 C         -77.220604     -205.433884      -70.262718
 C         -76.195488     -204.608597      -70.868591
 C         -76.839676     -206.660370      -69.574768
 C         -74.768082     -204.799438      -70.317162
 C         -75.432709     -206.923523      -69.201324
 C         -74.368973     -206.296387      -70.184090
 H         -76.576523     -203.529221      -71.017250
 H         -76.097481     -205.023209      -71.831123
 H         -77.560760     -206.849808      -68.735191
 H         -77.121803     -207.277802      -70.419380
 H         -74.583336     -204.417007      -69.333687
 H         -73.991264     -204.426346      -70.930603
 H         -75.169235     -207.928116      -69.230247
 H         -75.357780     -206.416046      -68.203636
 H         -73.358810     -206.264328      -69.696381
 H         -74.321129     -206.863556      -71.127373
