20
 generated by VMD
 C         -22.763552      -52.424774      -12.089905
 N         -23.537243      -52.454735      -11.158513
 H         -20.028826      -53.430965      -14.364549
 H         -22.012066      -52.429596      -13.042985
 C         -18.996016      -53.161430      -13.938866
 C         -18.194950      -52.085392      -14.627664
 C         -18.120333      -54.153206      -13.247363
 C         -16.675987      -52.322784      -14.502087
 C         -17.031628      -53.540043      -12.357904
 C         -16.227283      -52.430878      -13.055017
 H         -18.568649      -51.146896      -14.220963
 H         -18.361244      -52.051041      -15.705398
 H         -18.732222      -54.816326      -12.580626
 H         -17.715317      -54.828953      -14.038429
 H         -16.164986      -51.426182      -14.899631
 H         -16.203306      -53.162506      -15.028705
 H         -16.361010      -54.308716      -12.073332
 H         -17.538189      -53.179798      -11.379570
 H         -16.221300      -51.459286      -12.603306
 H         -15.148590      -52.640697      -12.953302
