20
 generated by VMD
 C         -12.624343      -27.651775       -4.500238
 N         -13.716712      -27.914755       -4.535629
 H         -10.597048      -29.552652       -2.452086
 H         -10.570461      -28.205502       -3.680017
 C          -9.950415      -29.034266       -3.170440
 C          -9.470872      -29.824177       -4.376431
 C          -8.783071      -28.555117       -2.383475
 C          -8.466749      -29.088413       -5.195413
 C          -7.826626      -27.726753       -3.188844
 C          -7.320092      -28.448433       -4.442629
 H         -10.223393      -30.249294       -5.015740
 H          -9.027439      -30.817720       -3.949026
 H          -9.127952      -27.959280       -1.563582
 H          -8.328237      -29.423079       -1.977327
 H          -9.016182      -28.233505       -5.725540
 H          -8.149890      -29.733622       -6.068069
 H          -6.989305      -27.351562       -2.663434
 H          -8.331149      -26.777534       -3.528296
 H          -6.721035      -27.770311       -5.097077
 H          -6.694101      -29.210196       -4.032743
