20
 generated by VMD
 C         -10.150396      -36.166451       -7.217052
 N          -9.977302      -36.908207       -8.070447
 H         -13.397882      -38.333839       -7.926453
 H         -14.547047      -38.793808       -6.718488
 C         -14.174638      -39.039986       -7.682172
 C         -13.552395      -40.395981       -7.750009
 C         -15.235157      -38.872070       -8.768543
 C         -14.656378      -41.420509       -7.476380
 C         -16.287069      -39.989578       -8.669012
 C         -15.764139      -41.363358       -8.550191
 H         -12.808370      -40.468731       -6.950626
 H         -13.203485      -40.643574       -8.749280
 H         -15.677910      -37.823246       -8.655498
 H         -14.773708      -38.984734       -9.774093
 H         -15.186082      -41.175591       -6.489409
 H         -14.142567      -42.383244       -7.450412
 H         -16.967104      -39.845039       -9.565144
 H         -16.878071      -39.722992       -7.839873
 H         -16.569613      -42.032063       -8.173410
 H         -15.438227      -41.796700       -9.507751
