20
 generated by VMD
 C         -50.764488     -129.715576      -45.266815
 N         -50.990505     -129.522980      -44.173420
 H         -49.380165     -128.986053      -41.900803
 H         -50.609344     -130.068619      -46.239712
 C         -48.385944     -129.218765      -41.805664
 C         -47.911331     -130.603958      -41.304722
 C         -47.406353     -128.134659      -41.385620
 C         -46.436810     -130.840210      -41.331421
 C         -45.904003     -128.528748      -41.256233
 C         -45.666496     -129.803101      -40.580826
 H         -48.371937     -131.356537      -41.876114
 H         -48.348843     -130.618835      -40.223690
 H         -47.595280     -127.152184      -41.918873
 H         -47.595467     -127.817879      -40.357361
 H         -45.870667     -130.985947      -42.264297
 H         -46.326260     -131.927704      -41.045284
 H         -45.404392     -127.735748      -40.714169
 H         -45.490829     -128.559616      -42.342216
 H         -44.640457     -130.093018      -40.695099
 H         -46.002342     -129.909134      -39.544426
