20
 generated by VMD
 C         -40.211376     -104.798744      -36.634773
 N         -39.453922     -104.064659      -37.125870
 H         -40.283012     -108.465157      -35.216797
 H         -40.920364     -105.327919      -36.005032
 C         -39.884666     -108.541031      -34.211269
 C         -38.720219     -107.747574      -33.736580
 C         -40.045483     -109.834328      -33.425789
 C         -38.910439     -107.449303      -32.256042
 C         -40.466911     -109.458336      -32.082626
 C         -39.193130     -108.708641      -31.404276
 H         -38.594692     -106.876610      -34.293491
 H         -37.843742     -108.259766      -33.868618
 H         -40.894123     -110.424728      -33.863144
 H         -39.146793     -110.464783      -33.455505
 H         -39.676369     -106.702423      -32.038628
 H         -37.918686     -107.049057      -31.866735
 H         -40.488503     -110.415581      -31.577856
 H         -41.310310     -108.787292      -32.012386
 H         -39.366253     -108.434425      -30.247469
 H         -38.317699     -109.318588      -31.530678
