20
 generated by VMD
 C         -58.630268     -152.079102      -49.023949
 N         -59.462868     -152.166336      -49.899780
 H         -55.881973     -150.247574      -47.948711
 H         -57.777367     -151.904510      -48.321262
 C         -55.493393     -149.986816      -48.883297
 C         -54.526688     -150.957657      -49.549191
 C         -55.216808     -148.568283      -49.136482
 C         -54.231323     -150.618713      -51.073727
 C         -54.734322     -148.162292      -50.549587
 C         -53.627186     -149.092300      -51.116230
 H         -54.951702     -151.982697      -49.468391
 H         -53.747631     -151.009048      -48.876011
 H         -55.973175     -147.866913      -48.812981
 H         -54.280125     -148.426834      -48.495155
 H         -55.219627     -150.682327      -51.498650
 H         -53.526611     -151.305298      -51.598438
 H         -54.351635     -147.056076      -50.483017
 H         -55.528553     -148.192993      -51.181160
 H         -53.346703     -148.780975      -52.128391
 H         -52.654224     -149.071457      -50.508327
