20
 generated by VMD
 C         -50.027401     -144.059494      -44.339840
 N         -49.271778     -143.714508      -45.205833
 H         -52.102001     -141.929230      -45.712227
 H         -50.600834     -144.378281      -43.503876
 C         -52.818821     -141.797684      -46.538769
 C         -52.316696     -141.935104      -47.835278
 C         -54.276573     -141.350647      -46.327034
 C         -53.243359     -142.417725      -48.934006
 C         -55.205917     -142.023163      -47.430275
 C         -54.571972     -141.678909      -48.866119
 H         -51.407143     -142.673538      -47.801949
 H         -51.872307     -140.903992      -48.045444
 H         -54.692863     -141.842255      -45.389168
 H         -54.588512     -140.288193      -46.339520
 H         -53.229713     -143.556946      -48.840973
 H         -52.766930     -142.186401      -49.896282
 H         -56.222313     -141.558670      -47.234394
 H         -55.267891     -143.121460      -47.473190
 H         -55.274075     -141.932877      -49.698662
 H         -54.460361     -140.553589      -48.850132
