20
 generated by VMD
 C         -38.389797      -98.609642      -27.761076
 N         -38.368713      -99.693542      -27.355806
 H         -37.401882      -97.279579      -30.955009
 H         -38.317074      -97.637802      -28.326941
 C         -36.455654      -97.652184      -30.793968
 C         -35.652981      -98.062775      -31.937843
 C         -35.657433      -97.305252      -29.543968
 C         -34.369884      -97.319984      -32.221458
 C         -34.563492      -96.222626      -29.888393
 C         -33.586288      -96.751907      -30.941029
 H         -36.288700      -97.944824      -32.828388
 H         -35.610027      -99.125023      -31.743803
 H         -36.307934      -96.906868      -28.751877
 H         -35.274071      -98.271492      -29.076080
 H         -34.752907      -96.466156      -32.804752
 H         -33.795033      -97.820702      -32.900146
 H         -33.924564      -96.001213      -29.039120
 H         -34.949234      -95.158295      -30.153568
 H         -33.002514      -95.762245      -31.155926
 H         -32.927284      -97.534050      -30.648329
