20
 generated by VMD
 C         -21.964224      -55.563114      -17.585972
 N         -20.948900      -55.733940      -18.188253
 H         -21.976517      -57.279850      -14.551497
 H         -22.730400      -55.250805      -16.929611
 C         -21.544746      -58.273739      -14.532329
 C         -21.359592      -58.854519      -13.179934
 C         -21.429655      -58.989906      -15.790232
 C         -21.095861      -60.317993      -13.261914
 C         -20.291634      -60.013035      -15.708710
 C         -19.886639      -60.444157      -14.314780
 H         -22.327089      -58.715382      -12.728922
 H         -20.693695      -58.326096      -12.497547
 H         -22.439491      -59.474743      -15.887334
 H         -21.250212      -58.312107      -16.627205
 H         -21.987165      -60.930752      -13.424933
 H         -20.673796      -60.647293      -12.295732
 H         -19.391645      -59.438541      -16.087866
 H         -20.495270      -60.881042      -16.390532
 H         -19.517952      -61.503189      -14.339933
 H         -18.986744      -59.813503      -14.011649
