20
 generated by VMD
 C         -23.264202      -54.573799      -14.951027
 N         -23.726212      -53.898560      -15.714443
 H         -20.299232      -54.602573      -15.392694
 H         -22.401138      -55.271996      -14.432776
 C         -19.680275      -55.343056      -14.760725
 C         -19.127300      -54.621952      -13.414973
 C         -18.984804      -56.548809      -15.285232
 C         -18.499796      -55.576878      -12.401465
 C         -18.758238      -57.379551      -14.020094
 C         -17.817953      -56.683552      -13.080099
 H         -20.006664      -54.145191      -12.976140
 H         -18.335337      -53.889313      -13.696609
 H         -19.648046      -57.007874      -15.934734
 H         -17.986401      -56.286247      -15.662714
 H         -19.279669      -55.926857      -11.693138
 H         -17.827364      -55.063576      -11.636950
 H         -18.277142      -58.377319      -14.260068
 H         -19.716297      -57.638142      -13.528845
 H         -17.413746      -57.339695      -12.336420
 H         -16.868324      -56.369770      -13.554686
