20
 generated by VMD
 C         -58.534550     -158.950226      -58.117496
 N         -59.010963     -159.468277      -57.162796
 H         -58.782757     -160.931580      -54.954407
 H         -58.034107     -158.451599      -58.965572
 C         -59.355171     -161.114655      -54.013306
 C         -58.645832     -161.324936      -52.730324
 C         -60.704460     -161.730209      -54.181786
 C         -59.690239     -161.309250      -51.534615
 C         -61.573921     -161.791260      -52.824097
 C         -60.773167     -162.277435      -51.645935
 H         -57.844124     -160.614105      -52.523220
 H         -58.368889     -162.367264      -52.931675
 H         -61.311283     -161.202240      -54.919987
 H         -60.449013     -162.785446      -54.663750
 H         -59.943153     -160.318787      -51.385048
 H         -59.133690     -161.636032      -50.607414
 H         -62.356869     -162.550278      -52.933296
 H         -62.141701     -160.895935      -52.590935
 H         -61.370113     -162.305145      -50.752670
 H         -60.326874     -163.272079      -51.936756
