20
 generated by VMD
 C         -41.594074     -119.424278      -34.501949
 N         -41.223965     -119.961128      -35.449596
 H         -43.326328     -118.199898      -36.619984
 H         -41.731064     -118.800743      -33.567337
 C         -43.789417     -118.245224      -37.601768
 C         -42.975792     -118.143585      -38.914509
 C         -45.139187     -117.544281      -37.640633
 C         -43.727562     -118.624420      -40.073242
 C         -45.993607     -117.878990      -38.903053
 C         -45.008614     -117.886665      -40.092590
 H         -42.003021     -118.650429      -38.739250
 H         -42.799259     -116.964287      -38.936592
 H         -45.616234     -117.775162      -36.673691
 H         -45.069382     -116.439102      -37.682308
 H         -43.788845     -119.701111      -39.891197
 H         -43.081314     -118.483765      -41.006130
 H         -46.864113     -117.177879      -38.923954
 H         -46.447285     -118.810997      -38.719460
 H         -45.567471     -118.291000      -40.905254
 H         -44.896912     -116.879967      -40.331715
