20
 generated by VMD
 C         -26.540989      -71.891464      -17.502722
 N         -26.739746      -72.730377      -16.731424
 H         -24.239019      -69.485092      -18.740349
 H         -26.403894      -71.087776      -18.312002
 C         -24.612680      -69.740517      -19.794195
 C         -24.089827      -70.954216      -20.404123
 C         -25.744259      -68.974464      -20.470604
 C         -25.096645      -71.711388      -21.132660
 C         -26.776758      -69.809738      -21.241705
 C         -25.991343      -70.860764      -21.941154
 H         -23.660347      -71.457191      -19.550041
 H         -23.238968      -70.710892      -21.177473
 H         -26.285315      -68.215164      -19.790579
 H         -25.275036      -68.301102      -21.237728
 H         -25.738714      -72.241379      -20.505798
 H         -24.597290      -72.477081      -21.740002
 H         -27.309183      -69.058212      -21.853928
 H         -27.599478      -70.136513      -20.496487
 H         -26.725245      -71.423180      -22.486111
 H         -25.353052      -70.401138      -22.671677
