20
 generated by VMD
 C          -2.026330      -15.226316        1.735377
 N          -1.618319      -15.338251        2.768420
 H          -3.914179      -16.374903        0.127471
 H          -4.734538      -17.178875       -1.185169
 C          -4.869215      -16.780262       -0.185099
 C          -5.982575      -15.713106       -0.271544
 C          -5.336344      -17.870117        0.739860
 C          -7.242039      -16.336002       -0.875038
 C          -6.632931      -18.530319        0.333413
 C          -7.690784      -17.504829        0.007215
 H          -5.761539      -14.747683       -0.798117
 H          -6.213067      -15.389100        0.734849
 H          -4.518506      -18.705738        0.799220
 H          -5.494608      -17.553804        1.834698
 H          -7.202207      -16.654661       -1.907741
 H          -8.001312      -15.561835       -0.827893
 H          -6.910282      -19.168087        1.179243
 H          -6.464606      -19.190071       -0.542580
 H          -8.447604      -17.976009       -0.633250
 H          -8.220162      -17.146830        0.927915
