20
 generated by VMD
 C          -6.986247      -23.312014        3.086146
 N          -6.328609      -22.617764        2.495476
 H          -7.115458      -21.827997       -0.212639
 H          -8.400271      -21.985331       -1.248942
 C          -7.385548      -21.618614       -1.222021
 C          -6.642810      -22.406679       -2.247960
 C          -7.375724      -20.146931       -1.501698
 C          -7.061945      -22.187344       -3.682110
 C          -7.841428      -19.896734       -2.967963
 C          -7.036789      -20.699221       -4.009785
 H          -6.741939      -23.515732       -2.063013
 H          -5.560867      -22.280844       -2.187604
 H          -8.113196      -19.623011       -0.794089
 H          -6.337987      -19.763584       -1.416681
 H          -8.070033      -22.610966       -3.791248
 H          -6.296238      -22.671761       -4.309440
 H          -7.766135      -18.830572       -3.223427
 H          -8.874238      -20.264555       -2.974091
 H          -7.519895      -20.569075       -4.975591
 H          -6.050486      -20.293415       -4.079283
