20
 generated by VMD
 C         -72.405357     -199.323822      -65.102119
 N         -71.258331     -199.294250      -64.889526
 H         -71.504410     -196.300217      -66.800743
 H         -73.422638     -199.155624      -65.504120
 C         -72.340752     -195.874985      -67.339195
 C         -72.807938     -194.421051      -67.015015
 C         -72.833054     -196.449570      -68.675774
 C         -73.928246     -193.982315      -68.023582
 C         -74.351601     -196.216965      -69.048744
 C         -74.977333     -195.045593      -68.273483
 H         -71.942802     -193.725342      -66.957153
 H         -73.220810     -194.394089      -66.014221
 H         -72.051033     -196.068466      -69.437729
 H         -72.677048     -197.586899      -68.750893
 H         -73.550568     -193.826767      -68.980446
 H         -74.419930     -193.070877      -67.649673
 H         -74.901772     -197.183578      -69.010460
 H         -74.420776     -195.930801      -70.092209
 H         -75.864296     -194.766037      -68.995255
 H         -75.426140     -195.372498      -67.398788
