20
 generated by VMD
 C         -30.469650      -74.348625      -20.999138
 N         -30.541529      -75.369713      -20.491472
 H         -27.769621      -74.483482      -19.906404
 H         -30.350027      -73.234909      -21.092228
 C         -26.790554      -74.532753      -20.323027
 C         -26.246086      -75.673248      -21.051939
 C         -25.912296      -73.318359      -20.327023
 C         -26.018713      -75.301041      -22.544147
 C         -25.683462      -72.937592      -21.858700
 C         -25.085655      -74.057976      -22.646496
 H         -26.908861      -76.481148      -21.067728
 H         -25.234734      -75.989204      -20.657326
 H         -26.423018      -72.471443      -19.849407
 H         -25.099483      -73.615547      -19.834881
 H         -26.999161      -75.082359      -23.049675
 H         -25.648996      -76.238991      -23.041956
 H         -24.968849      -72.070213      -21.817806
 H         -26.658398      -72.631638      -22.296833
 H         -25.019693      -73.872330      -23.752901
 H         -24.018482      -74.127899      -22.394352
