20
 generated by VMD
 C         -68.284737     -179.632187      -58.509003
 N         -67.546883     -179.273483      -57.698250
 H         -66.232048     -176.735458      -59.549232
 H         -69.011253     -179.799088      -59.258015
 C         -65.565010     -175.850128      -59.569603
 C         -66.018539     -174.667282      -60.476738
 C         -64.072029     -176.045639      -59.626556
 C         -65.138031     -173.478516      -60.607788
 C         -63.308437     -174.717880      -59.564850
 C         -63.645485     -173.781693      -60.715897
 H         -66.984169     -174.349625      -60.150116
 H         -66.252197     -175.190552      -61.447681
 H         -63.677715     -176.743607      -58.855305
 H         -63.831387     -176.561447      -60.686455
 H         -65.159019     -172.905457      -59.733356
 H         -65.440575     -172.878036      -61.407108
 H         -62.240723     -175.062714      -59.696159
 H         -63.337505     -174.161682      -58.659920
 H         -63.091335     -172.836517      -60.560459
 H         -63.324444     -174.308167      -61.697182
