20
 generated by VMD
 C         -69.163635     -180.821671      -62.494545
 N         -70.096283     -180.247253      -62.150158
 H         -66.812531     -181.083023      -59.561741
 H         -68.290588     -181.269852      -62.878635
 C         -66.432617     -180.257660      -60.065197
 C         -65.060791     -180.300171      -60.717564
 C         -67.032104     -178.944382      -59.500507
 C         -64.729942     -179.010223      -61.517418
 C         -66.533203     -177.741730      -60.413742
 C         -65.101257     -177.843445      -60.658443
 H         -65.104683     -181.115891      -61.404793
 H         -64.259125     -180.477295      -60.005924
 H         -68.091286     -178.943436      -59.571457
 H         -66.733437     -178.908142      -58.344116
 H         -65.309792     -178.994919      -62.381535
 H         -63.711040     -179.069138      -61.797729
 H         -66.821487     -176.773499      -59.948719
 H         -67.051231     -177.871979      -61.342606
 H         -64.692757     -176.969681      -61.340561
 H         -64.401840     -177.963623      -59.800480
