20
 generated by VMD
 C         -28.504492      -82.479301      -26.331718
 N         -27.874619      -82.569046      -27.279381
 H         -31.445889      -83.786949      -26.401327
 H         -28.990150      -82.253242      -25.334599
 C         -31.286415      -84.622360      -25.759348
 C         -30.757708      -84.441956      -24.312737
 C         -31.898621      -85.938988      -26.026930
 C         -31.724674      -84.801781      -23.281305
 C         -32.986378      -86.305016      -25.014465
 C         -32.321770      -86.231430      -23.576757
 H         -30.427376      -83.418518      -24.102737
 H         -29.733521      -84.962814      -24.306601
 H         -32.299942      -85.943092      -27.045633
 H         -31.092428      -86.641258      -25.974262
 H         -32.455807      -84.010834      -23.220406
 H         -31.216944      -84.822868      -22.202492
 H         -33.434055      -87.321671      -25.182909
 H         -33.722954      -85.587120      -25.130213
 H         -33.180698      -86.442451      -22.966208
 H         -31.630617      -87.026993      -23.576672
