20
 generated by VMD
 C         -41.995869     -120.291801      -34.628147
 N         -42.380527     -121.293961      -34.244160
 H         -43.801476     -120.119682      -37.647480
 H         -41.545212     -119.550941      -35.170399
 C         -43.969147     -119.292526      -38.263531
 C         -43.100067     -118.991020      -39.458473
 C         -45.234154     -118.560631      -38.097000
 C         -43.887962     -118.814438      -40.736271
 C         -46.032372     -118.574913      -39.383793
 C         -45.246273     -118.021805      -40.556396
 H         -42.334454     -119.807533      -39.461967
 H         -42.527813     -118.135208      -39.273708
 H         -45.608406     -118.979080      -37.183651
 H         -45.061363     -117.566124      -37.814400
 H         -44.076149     -119.864685      -41.081493
 H         -43.247868     -118.417908      -41.583687
 H         -47.081787     -117.963135      -39.236271
 H         -46.341209     -119.566368      -39.747654
 H         -45.739704     -118.134506      -41.524025
 H         -45.007061     -117.005219      -40.529148
