20
 generated by VMD
 C         -19.510843      -60.863201      -17.511026
 N         -20.050562      -59.857658      -17.728933
 H         -22.462618      -60.271141      -16.387196
 H         -18.835827      -61.664410      -17.233145
 C         -22.974426      -61.256161      -16.343811
 C         -23.398746      -61.820976      -17.623014
 C         -23.573605      -61.830154      -15.042635
 C         -22.907009      -63.251080      -17.539022
 C         -23.250181      -63.385723      -14.972936
 C         -23.393681      -64.076195      -16.330050
 H         -22.658638      -61.442310      -18.332916
 H         -24.481131      -61.677303      -17.908812
 H         -23.249884      -61.376915      -14.192686
 H         -24.655327      -61.728825      -15.088669
 H         -21.816334      -63.305290      -17.330778
 H         -23.010160      -63.784103      -18.493122
 H         -23.656286      -63.902351      -14.068232
 H         -22.148026      -63.436405      -14.701325
 H         -22.837109      -65.006416      -16.386295
 H         -24.428066      -64.417076      -16.520056
