20
 generated by VMD
 C         -11.947413      -26.166697       -0.089647
 N         -12.861232      -26.253988       -0.704762
 H         -10.063347      -26.662329       -3.582163
 H          -9.260305      -25.663612       -4.860555
 C          -9.095950      -26.145939       -3.881497
 C          -8.120076      -27.284561       -4.156391
 C          -8.529811      -25.070417       -2.999028
 C          -6.769391      -26.862030       -4.668661
 C          -7.115947      -24.665766       -3.386198
 C          -6.145312      -25.737371       -3.804671
 H          -8.662692      -28.128746       -4.799191
 H          -8.006593      -27.819052       -3.200241
 H          -9.192665      -24.216837       -2.775715
 H          -8.467250      -25.567656       -2.020172
 H          -6.850490      -26.522955       -5.726003
 H          -6.029195      -27.691833       -4.743366
 H          -6.623693      -24.061951       -2.622391
 H          -7.300144      -24.034189       -4.294353
 H          -5.222973      -25.365713       -4.265476
 H          -5.879174      -26.299944       -2.928451
