20
 generated by VMD
 C         -32.650883      -96.186691      -25.456556
 N         -33.045120      -95.791542      -24.462624
 H         -34.194782      -93.944145      -27.514559
 H         -32.269062      -96.393539      -26.526529
 C         -34.480682      -93.629761      -28.459297
 C         -35.862907      -93.536873      -28.956968
 C         -33.456120      -93.318031      -29.455248
 C         -36.209789      -92.433731      -29.837828
 C         -33.712337      -92.157265      -30.463158
 C         -35.145184      -92.228714      -31.023806
 H         -36.569756      -93.516075      -28.085777
 H         -35.949482      -94.553238      -29.385096
 H         -32.434433      -93.265228      -29.062580
 H         -33.379513      -94.211418      -30.125397
 H         -36.214146      -91.534332      -29.075235
 H         -37.142189      -92.513733      -30.340910
 H         -32.907513      -92.312622      -31.208340
 H         -33.639610      -91.212517      -30.022978
 H         -35.214283      -91.382416      -31.540171
 H         -35.211952      -93.152092      -31.584444
