20
 generated by VMD
 C         -79.313454     -204.640793      -70.748337
 N         -80.319374     -205.163788      -70.735298
 H         -76.796883     -203.263962      -68.822472
 H         -78.453751     -204.122650      -70.970627
 C         -75.824165     -202.990906      -69.231552
 C         -75.671066     -202.071808      -70.400940
 C         -74.768822     -204.012436      -68.832458
 C         -74.217216     -201.508301      -70.400627
 C         -73.339012     -203.674042      -69.173981
 C         -73.187294     -202.575531      -70.269341
 H         -76.327385     -201.284668      -70.130089
 H         -75.937431     -202.611206      -71.344879
 H         -74.815475     -204.197861      -67.729637
 H         -75.020027     -204.916153      -69.474503
 H         -74.076515     -200.849396      -69.575516
 H         -74.095467     -201.000443      -71.330650
 H         -72.800194     -204.692368      -69.431213
 H         -72.794930     -203.211655      -68.285538
 H         -72.210411     -202.097000      -70.085159
 H         -73.143417     -203.110962      -71.312790
