20
 generated by VMD
 C         -36.730690      -98.320702      -25.943190
 N         -37.252632      -98.376488      -26.984049
 H         -36.285000      -96.180496      -28.606600
 H         -36.307690      -98.339424      -24.877136
 C         -35.548138      -95.905785      -29.425924
 C         -35.646873      -96.721100      -30.714443
 C         -34.472126      -95.019096      -29.108971
 C         -35.093365      -95.904594      -31.831842
 C         -33.955429      -94.264412      -30.361832
 C         -33.781406      -95.191864      -31.561846
 H         -36.711475      -96.826942      -30.883999
 H         -35.312183      -97.745163      -30.684223
 H         -34.790985      -94.321732      -28.356974
 H         -33.575310      -95.570274      -28.773335
 H         -35.746880      -95.169144      -32.226727
 H         -34.864006      -96.634659      -32.634254
 H         -33.102348      -93.683029      -30.168358
 H         -34.714745      -93.475212      -30.654789
 H         -33.510143      -94.471687      -32.453888
 H         -32.931412      -95.937080      -31.324789
