20
 generated by VMD
 C         -50.730156     -129.607330      -45.878250
 N         -50.985058     -130.546478      -45.247845
 H         -48.132416     -131.478027      -44.189705
 H         -50.586319     -128.686630      -46.465065
 C         -48.150539     -131.228836      -43.087639
 C         -48.323807     -132.510254      -42.368526
 C         -47.961578     -129.946442      -42.292297
 C         -47.358006     -132.689316      -41.178894
 C         -46.935001     -130.125381      -41.175232
 C         -47.342720     -131.454269      -40.333599
 H         -48.254601     -133.319153      -43.225559
 H         -49.331181     -132.613495      -42.012558
 H         -47.690727     -129.210022      -43.042435
 H         -48.985737     -129.638123      -41.730228
 H         -46.371910     -132.929871      -41.568943
 H         -47.609715     -133.621368      -40.647804
 H         -46.813503     -129.153610      -40.534401
 H         -45.960587     -130.341125      -41.618053
 H         -46.698502     -131.542175      -39.418182
 H         -48.388378     -131.231003      -40.035828
