20
 generated by VMD
 C         -78.691872     -209.167435      -77.024025
 N         -79.733269     -208.623993      -76.812927
 H         -78.136215     -209.040039      -73.162750
 H         -77.804604     -209.745758      -77.205574
 C         -78.172615     -209.757645      -72.345749
 C         -77.057297     -210.015594      -71.425842
 C         -79.059372     -210.899902      -72.299988
 C         -77.289337     -210.589539      -70.111404
 C         -79.411903     -211.559601      -71.047241
 C         -78.159538     -211.847580      -70.222076
 H         -76.601830     -209.018631      -71.306389
 H         -76.377716     -210.683990      -71.893265
 H         -80.022362     -210.597565      -72.762367
 H         -78.661308     -211.684738      -73.031250
 H         -77.765572     -209.829529      -69.514839
 H         -76.374596     -210.749130      -69.559959
 H         -80.011154     -212.434280      -71.079796
 H         -79.960640     -210.870743      -70.324837
 H         -78.539696     -212.074081      -69.195358
 H         -77.533714     -212.706543      -70.623131
