20
 generated by VMD
 C         -59.574387     -151.993698      -49.484158
 N         -58.681267     -152.352341      -50.205048
 H         -56.788120     -150.597366      -48.954926
 H         -60.367355     -151.802139      -48.768627
 C         -55.749134     -150.468887      -49.098328
 C         -54.818230     -151.456528      -49.725052
 C         -55.382790     -149.123871      -49.182323
 C         -54.205482     -151.100479      -51.120789
 C         -54.859051     -148.712067      -50.492146
 C         -53.773197     -149.632690      -51.091339
 H         -55.332722     -152.389313      -49.686264
 H         -53.857410     -151.444412      -49.090210
 H         -56.291409     -148.478928      -48.999332
 H         -54.687057     -148.791031      -48.460541
 H         -54.898075     -151.294662      -51.940620
 H         -53.410408     -151.815872      -51.198544
 H         -54.454159     -147.664673      -50.484177
 H         -55.609436     -148.559998      -51.279881
 H         -53.272552     -149.283844      -52.085518
 H         -52.993519     -149.522705      -50.376766
