20
 generated by VMD
 C         -79.242516     -207.220215      -75.692566
 N         -80.220818     -207.055359      -75.103516
 H         -77.464767     -208.572037      -73.279465
 H         -78.471085     -207.273254      -76.398155
 C         -77.225983     -208.809555      -72.289558
 C         -75.965103     -208.218933      -71.549995
 C         -78.008591     -209.872162      -71.524368
 C         -76.197128     -207.971756      -70.024956
 C         -78.297897     -209.533585      -70.076927
 C         -76.903557     -209.151886      -69.421730
 H         -75.790840     -207.215256      -71.922081
 H         -75.178391     -208.866531      -71.888916
 H         -78.992149     -210.113815      -72.046875
 H         -77.367149     -210.746643      -71.654327
 H         -76.908661     -207.136688      -69.899055
 H         -75.263489     -207.710358      -69.479996
 H         -78.679794     -210.517380      -69.576462
 H         -79.075417     -208.816864      -69.924751
 H         -77.276314     -209.150620      -68.423683
 H         -76.167458     -209.977859      -69.526733
