20
 generated by VMD
 C         -11.138096      -34.639580       -9.067660
 N         -10.714002      -35.349964       -8.346215
 H         -12.338414      -37.000530       -7.585894
 H         -13.248850      -37.020432       -6.238162
 C         -13.066968      -37.658287       -7.081541
 C         -12.593492      -39.042416       -6.701112
 C         -14.218491      -37.623253       -7.997541
 C         -13.768538      -39.908043       -6.238935
 C         -15.325644      -38.518894       -7.534672
 C         -14.870790      -39.953163       -7.236625
 H         -11.893332      -39.060097       -5.889512
 H         -12.049024      -39.516796       -7.482836
 H         -14.613322      -36.562672       -8.038084
 H         -13.995065      -37.796505       -9.043324
 H         -14.117925      -39.610523       -5.253640
 H         -13.353272      -40.912678       -6.034181
 H         -16.145811      -38.560394       -8.331005
 H         -15.817737      -38.098713       -6.636827
 H         -15.717065      -40.542564       -6.822852
 H         -14.530797      -40.435883       -8.187369
