20
 generated by VMD
 C         -30.889593      -78.200577      -26.092041
 N         -31.776819      -77.584572      -25.805054
 H         -29.326168      -77.734016      -22.963114
 H         -30.016186      -78.936790      -26.306309
 C         -28.894978      -78.730644      -22.879423
 C         -27.417694      -78.913910      -23.138021
 C         -29.648958      -79.926552      -22.371048
 C         -26.673662      -79.751534      -22.059984
 C         -28.864513      -80.635269      -21.253532
 C         -27.491709      -81.112495      -21.892786
 H         -26.878868      -77.985100      -23.233227
 H         -27.378796      -79.291275      -24.103640
 H         -30.657318      -79.557556      -21.948030
 H         -29.931089      -80.466331      -23.209364
 H         -26.673990      -79.260483      -21.072666
 H         -25.639050      -79.883568      -22.377306
 H         -29.438635      -81.538918      -21.036488
 H         -28.766644      -79.860970      -20.396902
 H         -26.974030      -81.763496      -21.144817
 H         -27.658871      -81.720726      -22.899805
