20
 generated by VMD
 C         -13.175604      -29.799496       -7.420036
 N         -13.617755      -29.248350       -8.280056
 H         -11.626672      -30.381382       -4.993424
 H         -10.285971      -30.064180       -3.910189
 C         -10.770279      -30.919773       -4.427600
 C          -9.722356      -31.446423       -5.457795
 C         -11.404858      -32.005604       -3.561908
 C          -8.773102      -32.447151       -4.837605
 C         -10.387645      -33.119171       -3.069933
 C          -9.478729      -33.621140       -4.236610
 H          -9.165764      -30.676497       -5.891776
 H         -10.290598      -32.010651       -6.255210
 H         -11.895177      -31.569115       -2.667128
 H         -12.239113      -32.515205       -4.093228
 H          -8.049388      -31.888575       -4.169442
 H          -8.178063      -32.831322       -5.689817
 H         -11.105647      -33.893944       -2.687564
 H          -9.800431      -32.755543       -2.259668
 H          -8.628596      -34.291691       -3.888676
 H          -9.951226      -34.165779       -5.066842
