20
 generated by VMD
 C         -50.905674     -129.961914      -44.957912
 N         -51.656288     -129.265717      -45.409710
 H         -48.606548     -129.683502      -43.267426
 H         -50.197086     -130.625092      -44.469978
 C         -48.115124     -129.875122      -42.357609
 C         -47.971901     -131.170929      -41.543896
 C         -47.555759     -128.645401      -41.655453
 C         -46.518024     -131.435547      -41.119446
 C         -46.072018     -128.958801      -41.079159
 C         -45.941624     -130.254379      -40.297611
 H         -48.281452     -132.093918      -42.202423
 H         -48.638535     -131.194092      -40.736496
 H         -47.367569     -127.802162      -42.242809
 H         -48.140305     -128.438843      -40.729797
 H         -45.848293     -131.721970      -41.931732
 H         -46.402679     -132.291046      -40.464718
 H         -45.684647     -128.197983      -40.310814
 H         -45.363613     -129.005722      -41.922588
 H         -44.901100     -130.580490      -40.081017
 H         -46.485485     -130.235260      -39.355534
