20
 generated by VMD
 C         -65.304474     -176.840683      -56.060940
 N         -65.762131     -177.418961      -55.173653
 H         -63.688786     -174.239624      -58.570549
 H         -64.988029     -176.237320      -56.889206
 C         -64.290359     -173.745010      -59.425865
 C         -65.226357     -172.815231      -58.788052
 C         -63.627197     -173.330994      -60.827133
 C         -64.631248     -171.450943      -58.679237
 C         -63.184311     -171.832092      -60.682259
 C         -64.182098     -170.963043      -59.957699
 H         -65.480171     -172.960175      -57.769989
 H         -66.164711     -172.807816      -59.332237
 H         -62.810173     -174.045654      -61.009766
 H         -64.552551     -173.463577      -61.429829
 H         -63.854740     -171.549484      -57.882286
 H         -65.286133     -170.658829      -58.271454
 H         -62.893658     -171.439163      -61.614868
 H         -62.323711     -171.784409      -60.016964
 H         -63.671467     -169.988403      -59.738590
 H         -65.087555     -170.753006      -60.599747
