20
 generated by VMD
 C         -57.482574     -162.880325      -56.379879
 N         -57.133087     -162.283142      -57.257648
 H         -59.708351     -164.199066      -55.091770
 H         -57.757175     -163.453369      -55.489304
 C         -60.638855     -164.521729      -54.846745
 C         -61.037548     -164.510757      -53.443478
 C         -61.661621     -164.637436      -55.791103
 C         -62.343132     -163.831451      -53.083775
 C         -62.814537     -163.675354      -55.532124
 C         -63.344765     -163.860764      -54.161163
 H         -60.213726     -164.041718      -52.763851
 H         -60.944595     -165.585800      -53.094212
 H         -61.251904     -164.507309      -56.741821
 H         -61.997505     -165.662842      -55.872654
 H         -62.082336     -162.756516      -52.899590
 H         -62.786488     -164.311661      -52.142429
 H         -63.467777     -163.821854      -56.364037
 H         -62.356674     -162.747849      -55.590382
 H         -64.086952     -163.067261      -54.038311
 H         -63.998981     -164.745148      -54.254292
