20
 generated by VMD
 C         -29.938612      -79.308403      -25.915091
 N         -30.880215      -78.633743      -26.036238
 H         -29.211777      -82.544922      -25.600033
 H         -29.097610      -79.912994      -26.103142
 C         -29.004707      -82.943260      -24.638813
 C         -28.363047      -81.941429      -23.726778
 C         -29.857897      -83.978264      -24.014332
 C         -29.292391      -81.275551      -22.762266
 C         -30.968073      -83.307831      -23.284388
 C         -30.289658      -82.381638      -22.227909
 H         -27.836006      -81.194580      -24.277803
 H         -27.543762      -82.548973      -23.224426
 H         -30.353247      -84.491234      -24.805525
 H         -29.282036      -84.684456      -23.435972
 H         -29.894508      -80.507271      -23.406790
 H         -28.689476      -80.735474      -21.992487
 H         -31.522839      -84.038391      -22.754930
 H         -31.623148      -82.722023      -23.963772
 H         -31.055889      -81.867111      -21.696051
 H         -29.828917      -83.157066      -21.597355
