20
 generated by VMD
 C         -66.934898     -189.927643      -66.994858
 N         -67.360001     -190.118927      -65.932617
 H         -70.686829     -190.822418      -66.358810
 H         -66.428665     -189.570877      -67.835457
 C         -71.142418     -190.330841      -65.466225
 C         -72.353828     -191.074936      -64.981590
 C         -70.421928     -189.421036      -64.585449
 C         -73.225288     -190.275528      -64.133194
 C         -71.482704     -188.519730      -63.991119
 C         -72.464882     -189.285507      -63.199734
 H         -71.990074     -192.021317      -64.559555
 H         -72.986618     -191.396210      -65.903610
 H         -69.801292     -189.837265      -63.787098
 H         -69.674896     -188.704498      -65.114212
 H         -73.905106     -190.871567      -63.515430
 H         -73.934250     -189.790161      -64.768204
 H         -71.974945     -187.864334      -64.718178
 H         -71.040192     -187.754166      -63.312202
 H         -71.952423     -189.908035      -62.476227
 H         -73.162048     -188.488541      -62.661343
