20
 generated by VMD
 C         -70.231026     -182.772675      -63.709663
 N         -69.631989     -183.017273      -64.665825
 H         -68.842789     -179.843384      -61.981903
 H         -70.742584     -182.509323      -62.766953
 C         -67.910515     -180.347809      -61.571602
 C         -67.654953     -181.807480      -61.305000
 C         -67.112366     -179.389709      -60.780773
 C         -66.204918     -182.241257      -60.982838
 C         -65.612671     -179.881134      -60.593224
 C         -65.605797     -181.328018      -60.038128
 H         -68.202698     -182.343155      -62.079987
 H         -68.367233     -182.063034      -60.481342
 H         -67.081772     -178.399506      -61.298805
 H         -67.564941     -179.302109      -59.703556
 H         -65.585709     -182.210403      -61.994221
 H         -66.172386     -183.297806      -60.461403
 H         -65.095039     -179.188309      -59.912430
 H         -65.220497     -179.941391      -61.616703
 H         -64.642914     -181.587631      -59.709126
 H         -66.327271     -181.243988      -59.210262
