20
 generated by VMD
 C         -50.665161     -129.979034      -45.050175
 N         -51.503708     -129.198456      -44.831680
 H         -49.170120     -129.515427      -42.601482
 H         -49.993793     -130.851852      -45.153332
 C         -48.198402     -129.649673      -42.111511
 C         -47.928215     -130.989105      -41.589130
 C         -47.518074     -128.481995      -41.613071
 C         -46.502785     -131.234833      -41.167068
 C         -46.070133     -128.838348      -41.222378
 C         -45.892796     -130.082535      -40.332748
 H         -48.125072     -131.687134      -42.515427
 H         -48.617580     -131.281967      -40.865860
 H         -47.364227     -127.789803      -42.388344
 H         -47.954651     -128.050659      -40.636822
 H         -45.829243     -131.324463      -41.980255
 H         -46.393356     -132.050476      -40.558994
 H         -45.524433     -127.985466      -40.701698
 H         -45.502388     -129.006302      -42.168457
 H         -44.824970     -130.198456      -40.002064
 H         -46.508305     -130.036011      -39.428051
