20
 generated by VMD
 C         -21.891506      -67.015816      -16.736107
 N         -21.009674      -66.904305      -15.978095
 H         -24.334919      -64.612144      -18.489445
 H         -22.622482      -67.190887      -17.441328
 C         -24.529192      -65.748344      -18.558395
 C         -24.007948      -66.190994      -19.891880
 C         -25.880344      -66.105530      -17.951111
 C         -24.193724      -67.749977      -20.075621
 C         -26.283525      -67.610313      -18.431269
 C         -25.752625      -67.939987      -19.831810
 H         -22.857290      -65.865303      -19.868233
 H         -24.396269      -65.614212      -20.781815
 H         -25.650299      -66.153168      -16.896614
 H         -26.618748      -65.391556      -18.173069
 H         -23.603182      -68.421761      -19.459566
 H         -24.008963      -68.047256      -21.123564
 H         -27.363964      -67.785759      -18.497274
 H         -25.893780      -68.290619      -17.673426
 H         -26.113855      -68.936012      -19.957123
 H         -26.342817      -67.317894      -20.543503
