20
 generated by VMD
 C         -29.367929      -89.681740      -25.133650
 N         -29.290216      -88.837662      -25.893143
 H         -31.828569      -90.776428      -27.341656
 H         -29.456320      -90.352089      -24.217476
 C         -32.839996      -90.532066      -27.589159
 C         -34.044147      -90.832077      -26.751272
 C         -32.867573      -89.479347      -28.566500
 C         -34.634708      -89.552628      -26.258968
 C         -33.646324      -88.199295      -28.096449
 C         -34.978813      -88.529160      -27.399515
 H         -33.764748      -91.536339      -25.904818
 H         -34.834831      -91.435806      -27.351429
 H         -31.903528      -89.027924      -28.800631
 H         -33.229595      -89.828186      -29.587521
 H         -33.960545      -89.006546      -25.487854
 H         -35.681080      -89.820175      -25.830441
 H         -33.862564      -87.577499      -29.036743
 H         -32.901463      -87.620918      -27.518873
 H         -35.505066      -87.652901      -27.141085
 H         -35.707180      -88.836372      -28.092415
