20
 generated by VMD
 C         -29.385847      -74.667015      -19.557808
 N         -30.370495      -74.377670      -20.055759
 H         -25.779961      -73.598503      -18.813276
 H         -28.296917      -74.538315      -19.186464
 C         -25.677011      -73.342056      -19.872858
 C         -25.368563      -74.461563      -20.743744
 C         -25.472858      -71.988907      -20.506868
 C         -26.035404      -74.401283      -22.073339
 C         -26.122700      -71.978706      -21.910259
 C         -25.576994      -73.121132      -22.808535
 H         -25.755356      -75.494110      -20.221521
 H         -24.308167      -74.527275      -20.929829
 H         -26.016840      -71.218864      -19.902792
 H         -24.372290      -71.917221      -20.430758
 H         -27.118662      -74.476898      -21.915800
 H         -25.743660      -75.274696      -22.693792
 H         -26.036402      -70.944855      -22.303297
 H         -27.144838      -72.063927      -21.833187
 H         -26.022840      -73.041740      -23.877663
 H         -24.455645      -73.062279      -22.861248
