20
 generated by VMD
 C         -50.790283     -129.684937      -45.296471
 N         -50.972160     -129.559097      -44.142944
 H         -49.321239     -128.984894      -41.791355
 H         -50.560089     -130.030914      -46.267704
 C         -48.316444     -129.178253      -41.757839
 C         -47.936817     -130.571335      -41.288525
 C         -47.380375     -128.046463      -41.327530
 C         -46.407589     -130.852692      -41.358707
 C         -45.922455     -128.487717      -41.293320
 C         -45.672386     -129.828140      -40.559887
 H         -48.462807     -131.274017      -41.918098
 H         -48.237366     -130.848450      -40.275314
 H         -47.489590     -127.195862      -41.991879
 H         -47.836357     -127.924744      -40.331535
 H         -46.332199     -130.746948      -42.447006
 H         -46.095398     -131.777603      -40.805008
 H         -45.251862     -127.697807      -40.915909
 H         -45.616188     -128.634949      -42.433563
 H         -44.619930     -129.944443      -40.653263
 H         -45.815788     -129.763992      -39.462826
