20
 generated by VMD
 C         -49.965916     -143.537888      -44.478523
 N         -49.253574     -143.532959      -45.401421
 H         -52.093258     -141.457611      -45.520561
 H         -50.681538     -143.439606      -43.645679
 C         -52.749836     -141.608261      -46.388065
 C         -52.170334     -141.571121      -47.787796
 C         -54.183346     -141.126984      -46.190350
 C         -53.100170     -142.237167      -48.777050
 C         -55.102055     -141.887482      -47.185627
 C         -54.506321     -141.758301      -48.587391
 H         -51.205265     -142.088272      -47.807911
 H         -52.149685     -140.511414      -47.989639
 H         -54.399448     -141.393661      -45.166870
 H         -54.188663     -140.043060      -46.518597
 H         -53.168304     -143.259506      -48.622963
 H         -52.792110     -142.141022      -49.815704
 H         -56.034466     -141.348877      -47.003479
 H         -55.334240     -142.900681      -46.945335
 H         -55.110580     -142.079056      -49.403259
 H         -54.509888     -140.729477      -48.874626
