20
 generated by VMD
 C         -49.762867     -127.420052      -39.664677
 N         -48.895145     -126.677086      -39.399033
 H         -47.259933     -126.521484      -41.401390
 H         -50.565548     -128.091812      -39.917442
 C         -46.379128     -125.852135      -41.179554
 C         -45.188797     -126.360397      -40.341305
 C         -46.788261     -124.313522      -41.192959
 C         -44.027363     -125.396255      -40.706680
 C         -45.459229     -123.616486      -41.448395
 C         -44.420677     -123.931839      -40.456631
 H         -45.019623     -127.329239      -40.624573
 H         -45.365105     -126.439972      -39.254913
 H         -47.472797     -124.304710      -42.115269
 H         -47.349800     -123.934998      -40.328205
 H         -43.817017     -125.420067      -41.781174
 H         -43.052971     -125.543709      -40.256088
 H         -45.553539     -122.474930      -41.334263
 H         -45.169819     -123.751106      -42.578438
 H         -43.511173     -123.330238      -40.737831
 H         -44.673798     -123.648994      -39.463375
