20
 generated by VMD
 C         -31.319324      -75.598503      -23.589836
 N         -30.947466      -76.089684      -24.597227
 H         -29.579634      -78.358559      -22.015678
 H         -32.074333      -75.175652      -22.909323
 C         -28.530348      -78.174370      -21.937260
 C         -27.626991      -78.364059      -23.138193
 C         -27.906132      -78.075569      -20.563131
 C         -26.367445      -77.437042      -23.027525
 C         -26.773783      -77.063332      -20.528116
 C         -25.777473      -77.158607      -21.617702
 H         -28.190529      -78.102623      -24.036623
 H         -27.376562      -79.400826      -23.262318
 H         -28.736322      -77.973282      -19.831787
 H         -27.481998      -79.120789      -20.486141
 H         -26.722591      -76.450653      -23.378065
 H         -25.459669      -77.754570      -23.597593
 H         -26.270096      -76.997017      -19.620605
 H         -27.229944      -76.092033      -20.505600
 H         -25.129951      -76.328255      -21.683563
 H         -25.246664      -78.121048      -21.351665
