20
 generated by VMD
 C         -40.913082     -100.803802      -32.793217
 N         -41.694099     -101.235832      -32.024242
 H         -38.089497     -103.444382      -32.532837
 H         -40.428268     -100.381615      -33.682049
 C         -37.407200     -102.848404      -31.987267
 C         -36.165619     -102.725288      -32.915760
 C         -37.253220     -102.813713      -30.432547
 C         -35.208019     -101.658020      -32.358379
 C         -36.325203     -101.632576      -30.083038
 C         -35.016972     -101.653633      -30.866972
 H         -36.488041     -102.368462      -33.941208
 H         -35.693047     -103.718353      -33.106838
 H         -38.222248     -102.681664      -29.929979
 H         -36.897270     -103.832420      -30.209412
 H         -35.542881     -100.613152      -32.473591
 H         -34.157661     -101.656601      -32.778961
 H         -35.982681     -101.696777      -29.015532
 H         -36.769604     -100.668839      -30.156368
 H         -34.332134     -100.736176      -30.644257
 H         -34.488182     -102.594330      -30.698307
