20
 generated by VMD
 C         -56.992126     -163.547241      -56.658661
 N         -57.237400     -162.566498      -57.306488
 H         -59.712185     -165.022842      -54.809513
 H         -56.881344     -164.448563      -56.088364
 C         -60.744446     -164.740265      -54.680977
 C         -61.496189     -165.045898      -53.390137
 C         -61.622761     -164.571091      -55.933052
 C         -62.837360     -164.260132      -53.179218
 C         -62.872238     -163.706345      -55.727894
 C         -63.627075     -164.276947      -54.574261
 H         -60.873260     -164.878784      -52.464306
 H         -61.547440     -166.123260      -53.265587
 H         -60.925625     -164.145279      -56.671467
 H         -61.847363     -165.648361      -56.223541
 H         -62.627529     -163.224930      -53.041599
 H         -63.419804     -164.767502      -52.400322
 H         -63.441517     -163.494888      -56.636345
 H         -62.636047     -162.742020      -55.470798
 H         -64.630371     -163.907364      -54.393570
 H         -63.690281     -165.397110      -54.778225
