20
 generated by VMD
 C         -31.055779      -74.946983      -21.653824
 N         -31.687243      -75.934532      -21.772263
 H         -28.591225      -76.395454      -20.957508
 H         -30.451597      -73.926727      -21.641953
 C         -27.531929      -76.078133      -21.167847
 C         -26.761932      -77.115814      -21.956865
 C         -26.861622      -74.838211      -20.605314
 C         -25.720184      -76.468872      -22.855999
 C         -25.860415      -74.217850      -21.623344
 C         -24.935617      -75.343887      -22.278452
 H         -27.375532      -77.726112      -22.511953
 H         -26.299074      -77.829041      -21.289675
 H         -27.645411      -74.026566      -20.361164
 H         -26.301373      -75.107697      -19.715902
 H         -26.297812      -76.224281      -23.720175
 H         -25.007488      -77.222015      -23.116024
 H         -25.312738      -73.383110      -21.292837
 H         -26.394650      -73.902321      -22.453676
 H         -24.072088      -74.974472      -22.815639
 H         -24.336412      -75.875679      -21.497705
