20
 generated by VMD
 C          -1.999895       -9.137607        0.867888
 N          -1.672038       -9.700414       -0.028012
 H          -2.726723      -11.868226        1.923467
 H          -3.423669      -12.060622        3.480697
 C          -3.382266      -12.561924        2.516745
 C          -2.875070      -14.050884        2.599751
 C          -4.761790      -12.410317        1.878670
 C          -3.879010      -14.976474        3.259392
 C          -5.762019      -13.394808        2.453750
 C          -5.231537      -14.866762        2.450626
 H          -1.891725      -13.982768        3.060752
 H          -2.743702      -14.372087        1.497074
 H          -5.124923      -11.380983        1.930079
 H          -4.583644      -12.701153        0.830290
 H          -4.127782      -14.845371        4.344962
 H          -3.549453      -16.016081        3.104120
 H          -6.672911      -13.374285        1.857465
 H          -6.029469      -13.095579        3.487712
 H          -5.983267      -15.468135        2.936936
 H          -5.130970      -15.360538        1.488838
