20
 generated by VMD
 C         -21.630981      -66.435806      -16.670546
 N         -20.883074      -66.902145      -15.941279
 H         -24.017885      -64.662674      -18.062366
 H         -22.154320      -66.276772      -17.704205
 C         -24.529762      -65.394928      -18.595070
 C         -24.233782      -65.785637      -19.950743
 C         -25.872826      -65.908829      -17.969776
 C         -24.322956      -67.372665      -20.104568
 C         -25.703384      -67.504898      -18.003693
 C         -25.618019      -67.905518      -19.475805
 H         -23.255360      -65.452408      -20.269758
 H         -25.008369      -65.280151      -20.535034
 H         -26.059237      -65.591797      -16.898209
 H         -26.694448      -65.432755      -18.526035
 H         -23.352089      -67.827011      -19.680470
 H         -24.348124      -67.659531      -21.211626
 H         -26.627979      -67.772514      -17.460415
 H         -24.829479      -67.946724      -17.471430
 H         -25.696047      -68.960915      -19.516747
 H         -26.538185      -67.589722      -20.044792
