20
 generated by VMD
 C         -11.209509      -34.456177       -8.932082
 N         -10.772208      -35.328686       -8.434699
 H         -12.226349      -37.023346       -7.587796
 H         -13.204785      -36.983654       -6.235987
 C         -12.965078      -37.637001       -7.091980
 C         -12.521745      -39.044876       -6.657988
 C         -14.154436      -37.642586       -8.079106
 C         -13.678534      -39.907909       -6.188277
 C         -15.363716      -38.362263       -7.508764
 C         -14.914496      -39.847160       -7.127007
 H         -11.717457      -39.142635       -5.949886
 H         -12.082861      -39.538845       -7.526896
 H         -14.394813      -36.647533       -8.520101
 H         -13.866393      -38.233681       -9.022091
 H         -13.929536      -39.665775       -5.155696
 H         -13.249990      -40.979176       -6.053008
 H         -16.211416      -38.358318       -8.183990
 H         -15.677315      -37.859097       -6.521458
 H         -15.752884      -40.337807       -6.636038
 H         -14.685021      -40.419285       -8.082377
