20
 generated by VMD
 C         -68.027534     -192.835220      -66.336235
 N         -68.693207     -193.029785      -67.292175
 H         -69.932640     -189.932388      -65.327927
 H         -67.435547     -192.754272      -65.376579
 C         -70.939545     -190.198456      -65.261330
 C         -71.566498     -190.919556      -66.388687
 C         -71.573822     -190.253922      -63.839874
 C         -72.541916     -192.034668      -65.879799
 C         -73.147461     -190.408890      -63.980225
 C         -73.582535     -191.559143      -64.974945
 H         -70.834045     -191.327789      -67.081406
 H         -71.985146     -190.140671      -67.039574
 H         -71.016121     -191.114365      -63.324234
 H         -71.227226     -189.461182      -63.163918
 H         -71.852699     -192.749802      -65.274773
 H         -73.053696     -192.515915      -66.772766
 H         -73.559624     -189.477478      -64.316704
 H         -73.537315     -190.507874      -62.960152
 H         -73.922035     -192.401001      -64.311234
 H         -74.466293     -191.180389      -65.452133
