20
 generated by VMD
 C          -1.627165      -13.929914        1.319644
 N          -1.869940      -12.850244        1.453088
 H          -3.803964      -17.235809        1.737275
 H          -3.852580      -17.126543        0.014307
 C          -4.509057      -17.107576        0.899093
 C          -5.172069      -15.752559        1.102571
 C          -5.612581      -18.241245        0.875117
 C          -6.355558      -15.456596        0.196775
 C          -6.850423      -17.950470        0.007155
 C          -7.415850      -16.610424        0.306176
 H          -4.341984      -15.015080        0.940261
 H          -5.450133      -15.767361        2.168188
 H          -5.264903      -19.189150        0.604504
 H          -5.941457      -18.463091        1.873638
 H          -6.027831      -15.470626       -0.786968
 H          -6.855737      -14.523100        0.358007
 H          -7.599474      -18.705484        0.012419
 H          -6.488991      -17.934877       -1.024387
 H          -8.317384      -16.411810       -0.297755
 H          -7.698530      -16.584005        1.370263
