20
 generated by VMD
 C         -47.262268     -137.431976      -46.193558
 N         -47.173355     -136.787354      -47.110275
 H         -50.358902     -136.450943      -44.588573
 H         -47.456013     -138.009262      -45.337891
 C         -51.200348     -137.177078      -44.723618
 C         -51.474335     -137.934097      -46.009319
 C         -52.407425     -136.949646      -43.875191
 C         -52.098640     -139.291656      -45.719090
 C         -53.111740     -138.304184      -43.600948
 C         -53.426693     -139.124283      -44.927170
 H         -50.457523     -138.176910      -46.345207
 H         -51.851841     -137.337036      -46.866081
 H         -52.043835     -136.468231      -42.949104
 H         -53.046162     -136.271088      -44.400806
 H         -51.414021     -139.938370      -45.172119
 H         -52.299271     -139.690994      -46.765541
 H         -54.134407     -138.054642      -43.033627
 H         -52.445755     -138.998474      -43.116959
 H         -53.817852     -140.175919      -44.736973
 H         -54.190506     -138.612167      -45.649754
