20
 generated by VMD
 C         -79.812897     -206.716293      -73.254730
 N         -79.655754     -206.202911      -74.315048
 H         -78.315361     -205.482697      -70.648628
 H         -79.704514     -207.074203      -72.286217
 C         -77.292519     -205.638168      -70.273750
 C         -76.291031     -204.812988      -70.957558
 C         -76.886284     -206.937454      -69.647705
 C         -74.902794     -204.853516      -70.462318
 C         -75.512161     -206.981384      -69.137245
 C         -74.519592     -206.426376      -70.213203
 H         -76.662796     -203.749786      -70.872719
 H         -76.369041     -205.045288      -72.109879
 H         -77.500450     -207.131500      -68.781998
 H         -77.228775     -207.610016      -70.460693
 H         -74.756104     -204.366119      -69.505539
 H         -74.189499     -204.469604      -71.194366
 H         -75.135483     -208.070847      -68.977791
 H         -75.431824     -206.443207      -68.239372
 H         -73.452057     -206.384323      -69.989349
 H         -74.708351     -207.089554      -71.087509
