20
 generated by VMD
 C         -67.608810     -179.524216      -58.530842
 N         -68.459694     -180.232681      -58.221336
 H         -66.996346     -176.580978      -59.644539
 H         -66.753944     -178.936615      -58.812336
 C         -66.046204     -175.967743      -59.970661
 C         -65.989761     -175.079910      -61.185524
 C         -64.679832     -176.506897      -59.473488
 C         -65.007736     -173.963776      -60.896046
 C         -63.614113     -175.409042      -59.406250
 C         -63.656895     -174.537247      -60.599049
 H         -66.940590     -174.842804      -61.546333
 H         -65.558563     -175.561111      -62.082256
 H         -64.744492     -177.028320      -58.433144
 H         -64.263359     -177.285049      -60.174400
 H         -65.349396     -173.335068      -60.082783
 H         -64.977570     -173.246567      -61.755444
 H         -62.602982     -175.630325      -59.100044
 H         -64.018105     -174.755951      -58.606541
 H         -62.902645     -173.772980      -60.347256
 H         -63.439465     -175.140488      -61.470264
