20
 generated by VMD
 C         -25.954821      -71.833099      -17.227711
 N         -26.690449      -72.508713      -16.625658
 H         -24.227287      -69.085609      -18.955408
 H         -25.266415      -71.335587      -17.770151
 C         -24.821009      -69.668533      -19.676815
 C         -24.071945      -70.755295      -20.359074
 C         -25.752087      -68.780289      -20.485651
 C         -25.075281      -71.500183      -21.112194
 C         -26.834063      -69.609535      -21.267717
 C         -25.971725      -70.721092      -21.950794
 H         -23.629589      -71.444420      -19.597151
 H         -23.137115      -70.488861      -21.040453
 H         -26.283749      -68.041229      -19.851057
 H         -25.146687      -68.235062      -21.142981
 H         -25.750544      -72.121437      -20.505932
 H         -24.524073      -72.213066      -21.812269
 H         -27.308910      -68.891830      -21.904161
 H         -27.510321      -70.076233      -20.604048
 H         -26.828119      -71.362541      -22.332703
 H         -25.443365      -70.436172      -22.891712
