20
 generated by VMD
 C         -22.488478      -53.048325      -12.447714
 N         -22.827412      -52.514523      -13.449696
 H         -20.360889      -54.479546      -14.399220
 H         -22.233526      -53.567333      -11.696124
 C         -19.406916      -54.082428      -13.976306
 C         -19.044771      -52.670181      -13.713950
 C         -18.433983      -55.241421      -13.579253
 C         -17.525124      -52.450184      -13.741982
 C         -17.294340      -54.637802      -12.737731
 C         -16.603111      -53.630669      -13.644388
 H         -19.448389      -52.277363      -12.780104
 H         -19.526840      -52.072323      -14.443130
 H         -18.905838      -55.930710      -12.904738
 H         -17.993246      -55.779926      -14.459747
 H         -17.273060      -51.792820      -12.889268
 H         -17.308830      -51.840309      -14.618025
 H         -16.586134      -55.403851      -12.533992
 H         -17.611233      -54.227245      -11.712538
 H         -15.643156      -53.414337      -13.189997
 H         -16.308126      -54.036602      -14.619942
