20
 generated by VMD
 C         -46.772053     -125.107201      -38.301182
 N         -47.613918     -124.852165      -37.563221
 H         -44.663395     -122.209259      -37.719536
 H         -45.920864     -125.370163      -38.918159
 C         -44.797344     -122.295059      -38.755863
 C         -43.471863     -122.632393      -39.499084
 C         -45.760910     -121.404121      -39.418926
 C         -43.867229     -123.157112      -40.923111
 C         -46.241753     -122.027359      -40.761337
 C         -44.922478     -122.397240      -41.621693
 H         -42.757904     -123.296486      -38.821629
 H         -42.909828     -121.693604      -39.690331
 H         -46.562225     -121.223244      -38.744404
 H         -45.247486     -120.405907      -39.605389
 H         -44.300797     -124.136124      -40.554073
 H         -42.908459     -123.281410      -41.479340
 H         -46.966549     -121.375938      -41.298161
 H         -46.845818     -122.898621      -40.441826
 H         -45.196396     -122.881355      -42.586037
 H         -44.486366     -121.447571      -41.923496
