20
 generated by VMD
 C         -23.343483      -53.303909      -13.262697
 N         -23.293940      -52.648464      -14.168921
 H         -20.505060      -54.972141      -14.353806
 H         -23.395975      -53.754883      -12.106889
 C         -19.580521      -54.810879      -14.025648
 C         -18.973879      -53.405624      -13.961287
 C         -18.622185      -55.923855      -14.064264
 C         -17.828337      -53.304829      -13.024536
 C         -17.228210      -55.708565      -13.355262
 C         -16.726732      -54.291702      -13.364625
 H         -19.727158      -52.628853      -13.824959
 H         -18.674091      -53.082314      -14.978076
 H         -19.032743      -56.800201      -13.665342
 H         -18.388147      -56.146248      -15.102743
 H         -18.265169      -53.481148      -12.024771
 H         -17.370722      -52.319221      -13.009379
 H         -16.520155      -56.302059      -13.885538
 H         -17.317129      -56.063061      -12.281330
 H         -15.812643      -54.190903      -12.691623
 H         -16.322823      -54.060356      -14.370763
