20
 generated by VMD
 C         -27.611549      -84.583450      -26.188955
 N         -28.193254      -85.085045      -27.028524
 H         -31.250572      -84.612785      -26.029654
 H         -27.173946      -83.993736      -25.373060
 C         -31.901262      -85.442329      -25.794437
 C         -31.930674      -85.959862      -24.300032
 C         -32.133183      -86.601738      -26.854799
 C         -33.341858      -86.580223      -24.175081
 C         -33.357128      -87.362900      -26.558825
 C         -33.436642      -87.748192      -25.109852
 H         -31.781870      -85.141388      -23.646797
 H         -31.138687      -86.602257      -24.244738
 H         -32.190170      -86.372841      -27.905331
 H         -31.299417      -87.348915      -26.725973
 H         -34.089706      -85.825432      -24.394150
 H         -33.416000      -87.028107      -23.131668
 H         -33.333122      -88.371040      -27.113268
 H         -34.238621      -86.852066      -26.857306
 H         -34.372536      -88.229553      -24.853697
 H         -32.616196      -88.529457      -24.976444
