20
 generated by VMD
 C         -22.806423      -52.379017      -11.994135
 N         -22.972309      -52.538956      -10.869843
 H         -19.953848      -52.618286      -14.173748
 H         -22.669674      -52.240234      -12.983453
 C         -18.869101      -52.720421      -13.886604
 C         -18.005905      -51.885597      -14.747318
 C         -18.289053      -53.709019      -12.880170
 C         -16.551662      -52.301102      -14.625226
 C         -17.046619      -53.118721      -12.183322
 C         -16.251318      -52.176716      -13.144141
 H         -18.208151      -50.815117      -14.386255
 H         -18.287630      -51.870811      -15.796222
 H         -18.996984      -53.844482      -12.115315
 H         -18.113705      -54.699909      -13.336481
 H         -15.977642      -51.733131      -15.332616
 H         -16.492943      -53.315395      -14.999926
 H         -16.407795      -53.979542      -11.748941
 H         -17.236380      -52.601208      -11.252692
 H         -16.452698      -51.098820      -12.865090
 H         -15.162428      -52.321774      -12.978065
