20
 generated by VMD
 C         -20.182949      -57.277657      -16.782616
 N         -19.187399      -57.349178      -17.343800
 H         -22.436310      -59.827736      -17.648279
 H         -21.121458      -57.310463      -16.365034
 C         -22.499702      -60.376080      -16.669140
 C         -23.745043      -61.018639      -16.246653
 C         -21.208996      -60.860619      -16.237020
 C         -23.779566      -61.975761      -15.038219
 C         -21.166842      -62.193375      -15.432074
 C         -22.401270      -62.463860      -14.585778
 H         -24.273050      -61.423759      -17.116671
 H         -24.408588      -60.238258      -16.010496
 H         -20.545330      -61.089188      -17.098333
 H         -20.720387      -60.092930      -15.626492
 H         -24.455448      -62.814407      -15.346393
 H         -24.121469      -61.376980      -14.155313
 H         -20.245211      -62.042629      -14.794398
 H         -20.885361      -63.151299      -15.869433
 H         -22.561047      -63.583389      -14.427100
 H         -22.315094      -62.016823      -13.584648
