20
 generated by VMD
 C         -78.257729     -204.209656      -69.244270
 N         -79.103996     -203.912842      -69.991409
 H         -75.724678     -202.425583      -67.593636
 H         -77.447319     -204.458298      -68.583496
 C         -75.132607     -202.085648      -68.480446
 C         -75.369301     -200.755554      -69.038292
 C         -74.080902     -203.041458      -68.985428
 C         -74.918030     -200.529236      -70.491959
 C         -72.917625     -202.106857      -69.510406
 C         -73.432564     -201.149185      -70.619141
 H         -74.819221     -200.047089      -68.350784
 H         -76.396469     -200.511948      -69.002029
 H         -73.659897     -203.630493      -68.212250
 H         -74.511971     -203.550659      -69.831123
 H         -75.023293     -199.540634      -70.918282
 H         -75.601555     -201.063828      -71.209175
 H         -72.255333     -202.846909      -70.062187
 H         -72.264626     -201.561340      -68.771271
 H         -72.684326     -200.211288      -70.704903
 H         -73.327591     -201.709610      -71.648109
