20
 generated by VMD
 C         -38.593639      -98.680367      -27.729582
 N         -38.426971      -99.783928      -27.431782
 H         -37.485023      -97.896606      -30.822407
 H         -38.804039      -97.707726      -28.155643
 C         -36.468281      -97.555038      -30.838234
 C         -35.633877      -98.136642      -31.954735
 C         -35.718548      -97.322914      -29.601727
 C         -34.330418      -97.437927      -32.326462
 C         -34.496319      -96.337906      -29.798336
 C         -33.632362      -96.837288      -31.005375
 H         -36.190769      -98.217209      -32.871639
 H         -35.277943      -99.159790      -31.759319
 H         -36.378620      -96.966080      -28.826187
 H         -35.269943      -98.323799      -29.261639
 H         -34.606705      -96.521286      -32.878048
 H         -33.692726      -98.010658      -32.899174
 H         -33.926571      -96.487473      -28.879347
 H         -34.807350      -95.221291      -29.879528
 H         -33.026218      -95.891548      -31.431171
 H         -32.846558      -97.425514      -30.604130
