20
 generated by VMD
 C         -20.511684      -64.475586      -17.110592
 N         -19.843819      -64.696037      -16.193018
 H         -23.561197      -63.738968      -17.662718
 H         -21.032375      -64.359802      -18.154400
 C         -24.186880      -64.500877      -18.003983
 C         -24.896107      -64.738289      -19.299099
 C         -24.923868      -65.272385      -16.854118
 C         -24.736280      -66.170547      -19.722980
 C         -24.966801      -66.745514      -17.277063
 C         -25.140354      -67.192963      -18.778723
 H         -24.576599      -63.973171      -20.100018
 H         -26.001162      -64.511772      -19.328096
 H         -24.510672      -65.199867      -15.860494
 H         -26.033997      -64.896881      -16.783329
 H         -23.644997      -66.285370      -19.933647
 H         -25.231438      -66.277412      -20.690464
 H         -25.717255      -67.348938      -16.717506
 H         -23.988035      -67.104729      -16.956377
 H         -24.570229      -68.171196      -18.871767
 H         -26.234234      -67.403320      -18.934963
