20
 generated by VMD
 C         -41.076172     -104.238503      -35.827427
 N         -41.951015     -104.898003      -36.186291
 H         -38.460159     -104.003868      -33.319874
 H         -40.175861     -103.801521      -35.482727
 C         -38.154110     -105.003403      -33.013519
 C         -36.851410     -105.282204      -32.266205
 C         -39.255623     -105.957832      -33.138584
 C         -37.107929     -106.321510      -31.158453
 C         -39.252590     -107.007446      -32.075871
 C         -37.879116     -107.553673      -31.708927
 H         -36.365051     -104.338005      -31.806240
 H         -36.036453     -105.736748      -32.858780
 H         -40.122227     -105.295845      -33.013969
 H         -39.334366     -106.358711      -34.146736
 H         -37.690620     -105.812576      -30.414152
 H         -36.183811     -106.659615      -30.651476
 H         -39.677494     -107.896599      -32.600945
 H         -39.813950     -106.689156      -31.214058
 H         -37.966103     -108.319550      -30.923223
 H         -37.418194     -107.976471      -32.612766
