20
 generated by VMD
 C         -71.599411     -199.090744      -64.670990
 N         -70.615906     -198.777405      -65.176636
 H         -72.365166     -196.668991      -66.430534
 H         -72.616158     -199.156769      -64.329552
 C         -72.827820     -195.952499      -67.112694
 C         -73.110634     -194.529663      -66.686005
 C         -73.280670     -196.493256      -68.427933
 C         -73.438637     -193.725159      -68.013580
 C         -74.546600     -195.784653      -68.914711
 C         -74.672607     -194.303482      -68.660156
 H         -72.185120     -194.074265      -66.164864
 H         -73.878670     -194.532150      -65.940590
 H         -72.583786     -196.194092      -69.160156
 H         -73.492691     -197.554749      -68.297241
 H         -72.558502     -193.660583      -68.709129
 H         -73.694763     -192.614456      -67.935562
 H         -75.410500     -196.164047      -68.290665
 H         -74.824997     -196.028015      -69.969269
 H         -74.726822     -193.869919      -69.628952
 H         -75.740524     -194.021942      -68.321053
