20
 generated by VMD
 C         -50.237576     -145.236694      -45.006523
 N         -49.828159     -144.616898      -44.103519
 H         -52.807266     -142.948593      -45.917183
 H         -50.723415     -145.749680      -45.866844
 C         -53.357998     -142.762772      -46.862347
 C         -52.560253     -142.841064      -48.016613
 C         -54.663197     -142.114365      -46.837669
 C         -53.352768     -143.046875      -49.314838
 C         -55.470039     -142.234222      -48.122242
 C         -54.508984     -142.069077      -49.328304
 H         -51.933010     -143.731796      -47.921654
 H         -51.969669     -141.906952      -48.176891
 H         -55.242558     -142.240250      -45.890064
 H         -54.599220     -140.941605      -46.788540
 H         -53.691643     -144.063675      -49.463486
 H         -52.680088     -142.855026      -50.161861
 H         -56.319424     -141.510162      -48.212036
 H         -55.797264     -143.346832      -48.256798
 H         -55.193085     -142.179199      -50.161579
 H         -53.996521     -141.082764      -49.261936
