20
 generated by VMD
 C         -21.087885      -52.470730      -11.421591
 N         -21.450960      -52.866207      -10.418079
 H         -19.629181      -50.043182      -13.688425
 H         -21.071901      -52.200191      -12.318423
 C         -18.847639      -50.767864      -13.321825
 C         -18.467642      -51.995640      -14.098758
 C         -18.027143      -50.352116      -12.099223
 C         -16.941586      -51.978172      -14.344287
 C         -16.513487      -50.290585      -12.320881
 C         -16.168934      -51.568573      -13.047097
 H         -19.023785      -51.950253      -15.014734
 H         -18.784384      -52.897446      -13.518728
 H         -18.551167      -49.395237      -11.779945
 H         -18.168398      -51.022530      -11.239627
 H         -16.593084      -51.480404      -15.279714
 H         -16.726124      -53.040821      -14.623559
 H         -15.918869      -50.162655      -11.406822
 H         -16.225151      -49.424458      -12.988894
 H         -15.134451      -51.444416      -13.335485
 H         -16.183578      -52.446632      -12.411724
