20
 generated by VMD
 C         -61.730793     -154.568756      -53.933544
 N         -62.212704     -155.621719      -53.714424
 H         -58.153160     -154.871841      -52.209488
 H         -61.267582     -153.634964      -54.133945
 C         -57.197308     -154.830765      -51.606365
 C         -57.317734     -154.341476      -50.230545
 C         -55.944881     -154.697830      -52.365612
 C         -56.044308     -154.713760      -49.546715
 C         -54.620651     -155.066010      -51.650738
 C         -54.728962     -154.380600      -50.195488
 H         -58.078281     -154.809433      -49.714302
 H         -57.476101     -153.270996      -50.358475
 H         -56.065876     -155.203949      -53.329590
 H         -55.744080     -153.600250      -52.581905
 H         -56.128304     -155.843369      -49.411900
 H         -55.954601     -154.110458      -48.663784
 H         -53.751060     -154.794785      -52.172417
 H         -54.784149     -156.158844      -51.475769
 H         -53.973351     -154.804672      -49.566906
 H         -54.378422     -153.309082      -50.310028
