20
 generated by VMD
 C         -46.712799     -124.940521      -38.182590
 N         -47.258560     -124.563072      -37.219349
 H         -44.791042     -122.003525      -37.720318
 H         -46.308395     -125.354919      -39.123478
 C         -44.766296     -122.284180      -38.756626
 C         -43.527168     -122.595573      -39.512058
 C         -45.903965     -121.513435      -39.421150
 C         -43.845142     -122.935272      -40.954422
 C         -46.146461     -122.014381      -40.787430
 C         -44.826210     -122.009094      -41.586723
 H         -42.907658     -123.272064      -38.911419
 H         -43.040745     -121.592873      -39.643532
 H         -46.825348     -121.630074      -38.735714
 H         -45.653851     -120.462143      -39.385288
 H         -44.313999     -124.008385      -41.001549
 H         -43.080883     -123.115410      -41.709435
 H         -46.971321     -121.489304      -41.239983
 H         -46.528164     -122.952148      -40.635269
 H         -44.917484     -122.211586      -42.649414
 H         -44.392612     -120.982597      -41.534924
