20
 generated by VMD
 C         -19.370266      -60.653168      -17.860508
 N         -20.128546      -59.799149      -17.799068
 H         -22.748552      -60.026733      -15.955181
 H         -18.723082      -61.400593      -17.720015
 C         -23.220125      -60.961342      -16.064562
 C         -23.211220      -61.659607      -17.393177
 C         -23.663528      -61.806919      -14.896714
 C         -22.676044      -63.090103      -17.424749
 C         -22.970726      -63.236660      -14.847222
 C         -23.289434      -63.851406      -16.292925
 H         -22.657698      -61.095306      -18.120953
 H         -24.163160      -61.631817      -17.884863
 H         -23.529194      -61.365974      -13.986814
 H         -24.751625      -61.947723      -14.967571
 H         -21.517155      -63.089062      -17.341255
 H         -22.817915      -63.452061      -18.473684
 H         -23.556559      -63.814835      -14.112335
 H         -21.860855      -63.158157      -14.686179
 H         -22.972351      -64.864243      -16.353661
 H         -24.401114      -63.867207      -16.323547
