20
 generated by VMD
 C         -38.337513     -112.747231      -36.066948
 N         -37.423958     -112.323570      -36.649685
 H         -41.202362     -114.973976      -34.748966
 H         -39.011551     -113.434357      -35.493961
 C         -42.099392     -114.615273      -35.380733
 C         -42.043457     -114.592926      -36.829567
 C         -43.219872     -113.933372      -34.724140
 C         -43.408829     -114.877235      -37.564278
 C         -44.581211     -114.108040      -35.393272
 C         -44.490128     -113.933861      -36.929043
 H         -41.357006     -115.235153      -37.364250
 H         -41.674519     -113.741081      -37.300659
 H         -43.167507     -114.138374      -33.633789
 H         -42.941315     -112.859688      -34.888638
 H         -43.597942     -115.954910      -37.543381
 H         -43.252945     -114.652596      -38.627300
 H         -45.056183     -113.180115      -35.219593
 H         -44.912476     -115.087341      -35.118839
 H         -45.412525     -114.153801      -37.330181
 H         -44.307495     -112.863129      -37.217899
