20
 generated by VMD
 C         -46.708607     -124.679176      -37.662029
 N         -46.914909     -124.568199      -36.516857
 H         -44.801796     -122.471886      -37.762630
 H         -46.474319     -124.956161      -38.733032
 C         -44.849434     -122.276993      -38.816639
 C         -43.454643     -122.266327      -39.613369
 C         -45.864872     -121.384056      -39.442924
 C         -43.679737     -122.545616      -41.073406
 C         -46.065250     -121.798347      -40.916714
 C         -44.766571     -121.515213      -41.619884
 H         -42.627113     -122.929977      -39.301750
 H         -43.104450     -121.137360      -39.529766
 H         -46.888447     -121.656929      -38.931564
 H         -45.689175     -120.330856      -39.248295
 H         -43.919582     -123.607269      -41.351692
 H         -42.696434     -122.405876      -41.552166
 H         -46.813526     -121.080345      -41.283737
 H         -46.432919     -122.712326      -41.137768
 H         -44.946255     -121.618965      -42.688618
 H         -44.526867     -120.402634      -41.582802
