20
 generated by VMD
 C         -61.308189     -156.100540      -54.866409
 N         -60.463131     -155.931305      -55.679756
 H         -59.519024     -155.974304      -51.536961
 H         -62.023869     -156.429764      -54.081657
 C         -58.456493     -156.053635      -51.386524
 C         -57.700001     -154.918091      -50.717560
 C         -57.780937     -157.246918      -52.057667
 C         -56.379578     -155.412552      -50.274536
 C         -56.428619     -157.626266      -51.447098
 C         -55.558933     -156.339020      -51.246101
 H         -58.389111     -154.521439      -49.895706
 H         -57.426674     -154.110962      -51.418320
 H         -58.511890     -158.158218      -52.064732
 H         -57.566761     -157.051605      -53.134262
 H         -56.642883     -155.725876      -49.215523
 H         -55.615173     -154.633377      -49.946674
 H         -55.695789     -158.324387      -51.951870
 H         -56.574444     -158.123169      -50.466358
 H         -54.506229     -156.640549      -50.862171
 H         -55.378826     -155.874054      -52.209469
