20
 generated by VMD
 C         -31.298630      -77.636551      -26.082628
 N         -31.713293      -77.985161      -27.089417
 H         -29.273653      -79.259109      -24.239710
 H         -31.206814      -77.114571      -25.061621
 C         -28.950636      -79.697800      -23.308811
 C         -27.505066      -79.677734      -23.046309
 C         -29.847311      -80.621086      -22.648218
 C         -26.928335      -80.497391      -21.962315
 C         -29.302847      -81.437027      -21.531132
 C         -27.775188      -81.784149      -21.605852
 H         -27.231455      -78.590637      -22.987635
 H         -27.068777      -80.139984      -24.032125
 H         -30.658909      -80.105972      -22.273577
 H         -30.245642      -81.330879      -23.427649
 H         -26.988132      -79.783928      -21.063202
 H         -25.858587      -80.796768      -22.026855
 H         -29.788879      -82.381058      -21.497400
 H         -29.388296      -81.000366      -20.592287
 H         -27.477325      -82.155884      -20.571791
 H         -27.682987      -82.584244      -22.334942
