20
 generated by VMD
 C         -27.008821      -72.358490      -17.559759
 N         -27.664085      -73.257355      -17.256157
 H         -24.645060      -70.097366      -18.691374
 H         -26.589186      -71.433144      -17.910810
 C         -24.904579      -70.380707      -19.723848
 C         -24.310406      -71.657600      -20.429779
 C         -25.673832      -69.391983      -20.512871
 C         -25.257069      -72.334648      -21.396185
 C         -26.542057      -70.169960      -21.541132
 C         -25.848558      -71.265450      -22.377716
 H         -24.015921      -72.351608      -19.634142
 H         -23.408693      -71.171272      -20.864981
 H         -26.280704      -68.694603      -19.968306
 H         -24.862957      -68.818657      -20.999874
 H         -26.077160      -72.759125      -20.803568
 H         -24.885052      -73.114548      -22.004442
 H         -26.939438      -69.371208      -22.294128
 H         -27.522070      -70.565895      -21.028221
 H         -26.473078      -71.813309      -23.109419
 H         -24.963430      -70.833801      -22.718607
