20
 generated by VMD
 C         -40.305058     -117.001389      -34.313168
 N         -39.432606     -116.258965      -34.584633
 H         -41.503197     -115.561691      -37.836964
 H         -41.072868     -117.805214      -34.076099
 C         -42.535007     -115.974716      -37.987469
 C         -43.220154     -116.042175      -39.382915
 C         -43.333519     -116.011292      -36.660347
 C         -44.572472     -116.814941      -39.363625
 C         -44.535454     -116.913010      -36.810570
 C         -45.338867     -116.416267      -38.042019
 H         -42.595669     -116.653709      -40.055962
 H         -43.249447     -115.027428      -39.728989
 H         -42.598583     -116.376472      -35.816467
 H         -43.614124     -114.935394      -36.498455
 H         -44.348282     -117.856728      -39.405674
 H         -45.192741     -116.650398      -40.280254
 H         -45.030338     -116.765060      -35.892559
 H         -44.103550     -117.899315      -36.840199
 H         -46.395813     -116.820984      -38.040504
 H         -45.623180     -115.427925      -38.156181
