20
 generated by VMD
 C         -21.045702      -52.503971      -11.423992
 N         -21.438368      -52.850956      -10.427938
 H         -19.557142      -50.111607      -13.729511
 H         -20.361099      -51.999409      -12.354644
 C         -18.777285      -50.651207      -13.319794
 C         -18.476297      -51.992180      -13.942042
 C         -18.038923      -50.267883      -12.087676
 C         -17.007303      -51.972164      -14.296473
 C         -16.565954      -50.281017      -12.368469
 C         -16.093321      -51.542919      -13.144382
 H         -19.094200      -52.234196      -14.807295
 H         -18.661947      -52.794170      -13.214910
 H         -18.198296      -49.241611      -11.792368
 H         -18.401104      -50.981647      -11.294014
 H         -16.992683      -51.166042      -15.044328
 H         -16.630524      -52.924789      -14.650928
 H         -16.106478      -50.285130      -11.439061
 H         -16.274218      -49.349453      -12.890682
 H         -15.071777      -51.552822      -13.458907
 H         -16.170382      -52.288548      -12.382248
