20
 generated by VMD
 C         -70.614914     -196.699051      -66.016342
 N         -69.504768     -196.409088      -65.915657
 H         -73.503616     -195.330444      -64.696449
 H         -71.673187     -196.973801      -66.044312
 C         -73.558487     -194.851120      -65.650238
 C         -72.585304     -193.778870      -65.977440
 C         -74.423561     -195.371719      -66.722656
 C         -72.685745     -193.070999      -67.299767
 C         -73.815376     -195.229370      -68.146431
 C         -73.425415     -193.709564      -68.410515
 H         -71.596893     -194.116638      -65.807358
 H         -72.698441     -193.040451      -65.215820
 H         -74.608078     -196.420853      -66.666504
 H         -75.435524     -194.971130      -66.842766
 H         -71.715820     -192.828262      -67.705566
 H         -73.069672     -192.056946      -67.131760
 H         -74.409874     -195.666504      -68.954712
 H         -72.955414     -195.898956      -68.067032
 H         -72.923950     -193.568863      -69.394447
 H         -74.451096     -193.204468      -68.530685
