20
 generated by VMD
 C         -17.742197      -48.330009       -6.851519
 N         -17.145212      -47.432186       -6.527611
 H         -16.397406      -48.678810      -10.552005
 H         -15.612518      -48.528847      -12.233521
 C         -16.249483      -48.079933      -11.484334
 C         -15.633005      -46.703197      -11.142707
 C         -17.588060      -47.919765      -12.221940
 C         -15.411833      -45.937935      -12.440438
 C         -17.579102      -47.108036      -13.504625
 C         -16.775375      -45.828808      -13.150552
 H         -14.656083      -46.708588      -10.583036
 H         -16.243967      -46.114582      -10.446872
 H         -17.942198      -48.909210      -12.537048
 H         -18.372942      -47.607880      -11.529631
 H         -14.710092      -46.536369      -13.043000
 H         -14.924644      -44.958004      -12.273580
 H         -18.600937      -46.843475      -13.733237
 H         -17.131277      -47.684898      -14.453921
 H         -16.626547      -45.220837      -14.062346
 H         -17.418772      -45.223919      -12.499526
