20
 generated by VMD
 C         -31.502384      -79.278160      -26.434719
 N         -30.898474      -78.318741      -26.463358
 H         -28.494724      -81.609848      -25.336819
 H         -32.134491      -80.123360      -26.112200
 C         -28.754120      -81.648544      -24.348560
 C         -27.639967      -81.431366      -23.375032
 C         -29.930191      -82.593513      -24.116884
 C         -28.305540      -81.278992      -21.897312
 C         -30.512810      -82.401871      -22.717913
 C         -29.397514      -82.270065      -21.638031
 H         -26.960291      -80.601212      -23.675983
 H         -26.989834      -82.365402      -23.485090
 H         -30.773371      -82.377838      -24.875280
 H         -29.602909      -83.605766      -24.296886
 H         -28.885363      -80.333168      -21.731693
 H         -27.490870      -81.357841      -21.280472
 H         -31.154551      -83.264778      -22.591335
 H         -31.202208      -81.477936      -22.646931
 H         -30.033989      -81.933990      -20.758224
 H         -28.873293      -83.309303      -21.463385
