20
 generated by VMD
 C         -59.941959     -169.691574      -55.503185
 N         -59.628490     -168.611328      -55.064762
 H         -62.875370     -170.374390      -56.367008
 H         -60.393234     -170.636459      -55.844681
 C         -63.267509     -169.457657      -56.793148
 C         -62.809795     -168.945557      -58.132877
 C         -63.542618     -168.455170      -55.825226
 C         -63.401535     -167.685959      -58.695705
 C         -64.210732     -167.056488      -56.290569
 C         -63.481663     -166.579330      -57.588902
 H         -62.836418     -169.712692      -58.858555
 H         -61.690891     -168.914871      -57.931412
 H         -64.194611     -168.809784      -55.121716
 H         -62.696636     -168.183182      -55.305359
 H         -64.362488     -168.025696      -59.137478
 H         -62.723629     -167.248077      -59.478970
 H         -64.193893     -166.394089      -55.472591
 H         -65.191498     -167.193390      -56.431637
 H         -63.965851     -165.758865      -58.127548
 H         -62.387493     -166.335052      -57.360977
