20
 generated by VMD
 C         -14.808061      -45.482327       -6.609345
 N         -14.537227      -46.468277       -7.082644
 H         -15.348538      -44.088524       -9.022861
 H         -14.438181      -44.256710      -10.486108
 C         -15.490899      -44.332516      -10.103836
 C         -16.421387      -43.274265      -10.732383
 C         -16.018711      -45.730225      -10.321335
 C         -16.715654      -43.713345      -12.132773
 C         -16.240793      -46.165749      -11.743118
 C         -17.208664      -45.197598      -12.345877
 H         -16.123234      -42.235291      -10.609401
 H         -17.347300      -43.364712      -10.147326
 H         -15.267144      -46.340515       -9.771905
 H         -16.942749      -45.988091       -9.794505
 H         -15.863305      -43.604183      -12.800372
 H         -17.543106      -43.107372      -12.508824
 H         -16.743433      -47.153759      -11.669627
 H         -15.287988      -46.258389      -12.319683
 H         -17.300056      -45.482437      -13.429826
 H         -18.226221      -45.174679      -11.867122
