20
 generated by VMD
 C         -79.023201     -208.167358      -75.899071
 N         -78.321846     -207.524551      -75.264015
 H         -79.164452     -210.094879      -73.508568
 H         -79.805222     -208.824249      -76.377129
 C         -78.623215     -210.166794      -72.574615
 C         -77.489784     -209.305222      -72.359406
 C         -78.881851     -211.173477      -71.552139
 C         -77.104904     -208.878296      -70.952095
 C         -78.532585     -210.658325      -70.121346
 C         -77.112518     -210.098007      -69.994751
 H         -77.666641     -208.388733      -72.973228
 H         -76.594269     -209.691223      -72.942360
 H         -79.964905     -211.311554      -71.594170
 H         -78.384529     -212.145554      -71.852684
 H         -77.753227     -207.979568      -70.773422
 H         -76.090721     -208.415909      -70.986816
 H         -78.502853     -211.699936      -69.529358
 H         -79.252914     -210.099792      -69.623352
 H         -76.711143     -209.841141      -68.983170
 H         -76.454094     -210.891663      -70.404495
