20
 generated by VMD
 C         -30.895222      -77.861008      -25.368484
 N         -31.851374      -77.119087      -25.344225
 H         -29.370182      -77.097481      -22.564880
 H         -30.269854      -78.594994      -25.034357
 C         -28.583324      -77.828621      -22.284718
 C         -27.459391      -77.913857      -23.206429
 C         -29.118322      -79.003731      -21.542362
 C         -26.365225      -78.872452      -22.594353
 C         -28.000795      -79.791176      -20.833727
 C         -26.973145      -80.158195      -21.889452
 H         -27.079243      -76.991669      -23.532965
 H         -27.867197      -78.310295      -24.085321
 H         -29.995457      -78.674622      -20.902916
 H         -29.719362      -79.557961      -22.242842
 H         -25.794662      -78.332283      -21.829813
 H         -25.680260      -79.234879      -23.380692
 H         -28.529251      -80.699844      -20.578148
 H         -27.595839      -79.187141      -20.029007
 H         -26.208862      -80.778908      -21.299862
 H         -27.394388      -80.863121      -22.667757
