20
 generated by VMD
 C         -48.176662     -140.433243      -45.667236
 N         -47.067749     -140.126862      -45.573151
 H         -51.165253     -138.761093      -45.365017
 H         -49.200478     -140.718704      -45.682449
 C         -52.036617     -139.242554      -45.802612
 C         -52.335304     -139.371719      -47.318325
 C         -53.076035     -139.412399      -44.773571
 C         -53.281384     -140.576431      -47.586578
 C         -54.115486     -140.503296      -45.156525
 C         -54.488121     -140.532578      -46.666527
 H         -51.332729     -139.462112      -47.783043
 H         -52.740788     -138.507828      -47.864098
 H         -52.633453     -139.513184      -43.726154
 H         -53.684032     -138.453873      -44.671349
 H         -52.763313     -141.547180      -47.432858
 H         -53.528564     -140.529205      -48.663612
 H         -55.009281     -140.457397      -44.565731
 H         -53.520943     -141.488693      -44.966450
 H         -54.934074     -141.463547      -46.767372
 H         -55.153217     -139.763214      -46.822578
