20
 generated by VMD
 C         -60.731308     -153.325089      -52.268040
 N         -60.604969     -152.762695      -51.228363
 H         -57.448929     -153.920029      -50.210567
 H         -60.810944     -153.683075      -53.296017
 C         -56.543694     -153.368988      -50.446152
 C         -55.432499     -153.482712      -49.471783
 C         -56.644054     -152.055450      -51.150131
 C         -53.997406     -153.030197      -50.068142
 C         -55.259598     -151.643631      -51.577148
 C         -54.124294     -151.614029      -50.501003
 H         -55.239651     -154.463959      -49.143452
 H         -55.731037     -152.854080      -48.629894
 H         -57.321102     -152.142105      -52.050751
 H         -57.052494     -151.261490      -50.550369
 H         -53.923912     -153.606369      -50.978466
 H         -53.088459     -153.038452      -49.350578
 H         -55.215736     -150.554169      -51.893211
 H         -54.990303     -152.093979      -52.466724
 H         -53.077271     -151.420898      -50.935333
 H         -54.383430     -151.069885      -49.641041
