20
 generated by VMD
 C         -40.270493      -99.674812      -28.978613
 N         -39.468166     -100.096046      -28.236116
 H         -37.412666      -99.089867      -30.730202
 H         -40.799572      -99.161674      -29.751375
 C         -36.454807      -98.522423      -30.758432
 C         -35.830585      -98.970222      -32.057983
 C         -35.506691      -98.528786      -29.582819
 C         -34.660526      -97.996658      -32.489662
 C         -34.284698      -97.540375      -29.960707
 C         -33.569542      -97.854294      -31.329594
 H         -36.558846      -99.168358      -32.850067
 H         -35.317963      -99.947075      -31.878431
 H         -35.909809      -98.259216      -28.625914
 H         -35.133823      -99.573997      -29.469267
 H         -35.176750      -97.076927      -32.842010
 H         -34.194145      -98.416870      -33.386826
 H         -33.534790      -97.553207      -29.171738
 H         -34.771790      -96.484413      -29.872355
 H         -32.794022      -97.126274      -31.619881
 H         -32.966305      -98.805176      -31.209391
