20
 generated by VMD
 C         -40.589039      -99.965714      -29.546112
 N         -40.115364     -100.192299      -28.502974
 H         -37.231617      -99.834908      -30.521807
 H         -41.210571      -99.847198      -30.479425
 C         -36.347790      -99.220177      -30.837347
 C         -35.972584      -99.280571      -32.209755
 C         -35.412754      -99.097267      -29.746511
 C         -34.825878      -98.336075      -32.402691
 C         -34.279053      -98.051346      -29.959389
 C         -33.640713      -98.198807      -31.376890
 H         -36.883934      -98.947197      -32.710838
 H         -35.587170     -100.188728      -32.667931
 H         -35.915260      -98.696335      -28.844767
 H         -35.087238     -100.144928      -29.436438
 H         -35.282619      -97.353798      -32.589375
 H         -34.320267      -98.682838      -33.328297
 H         -33.549561      -98.275894      -29.154593
 H         -34.692730      -97.031174      -29.908703
 H         -33.085468      -97.336411      -31.645702
 H         -32.997055      -99.113197      -31.534525
