20
 generated by VMD
 C         -72.809448     -198.742752      -65.692810
 N         -73.795944     -199.204712      -66.106369
 H         -70.947258     -196.327438      -67.489426
 H         -71.948341     -198.391617      -65.131111
 C         -72.022438     -196.337448      -67.731232
 C         -72.987556     -195.596039      -66.862198
 C         -72.409401     -196.995392      -69.016197
 C         -74.296989     -195.298813      -67.731033
 C         -73.911934     -197.351227      -69.160347
 C         -74.913422     -196.624985      -68.305931
 H         -72.403191     -194.813873      -66.462166
 H         -73.340065     -196.173248      -66.015846
 H         -72.067734     -196.334930      -69.831062
 H         -71.753647     -197.873413      -69.312042
 H         -73.984047     -194.627365      -68.580238
 H         -75.057732     -194.827667      -67.107849
 H         -74.142097     -198.339478      -68.825294
 H         -74.149391     -197.313980      -70.269371
 H         -75.719765     -196.159012      -68.991920
 H         -75.181076     -197.207382      -67.526077
