20
 generated by VMD
 C         -13.889485      -42.948345       -6.144714
 N         -12.911742      -43.444260       -6.280780
 H         -14.809296      -45.121384       -9.010658
 H         -14.317265      -43.734135      -10.170086
 C         -15.111288      -44.435497       -9.877825
 C         -16.401587      -43.672764       -9.433352
 C         -15.526813      -45.322224      -11.010486
 C         -16.945976      -42.799454      -10.567667
 C         -15.860719      -44.405460      -12.201117
 C         -17.087307      -43.546814      -11.890399
 H         -16.218561      -42.998375       -8.579983
 H         -17.121071      -44.433998       -9.249401
 H         -14.674444      -45.984226      -11.287788
 H         -16.432787      -45.876595      -10.758724
 H         -16.271191      -41.933895      -10.682775
 H         -17.925766      -42.432751      -10.238879
 H         -16.174036      -45.085014      -13.045708
 H         -14.979561      -43.911243      -12.540996
 H         -17.301933      -42.896351      -12.810970
 H         -18.018833      -44.154194      -11.784261
