20
 generated by VMD
 C         -15.120797      -46.116699       -6.442622
 N         -14.710495      -47.115566       -6.117815
 H         -15.639453      -44.576618       -9.306109
 H         -14.593083      -44.712994      -10.636072
 C         -15.668880      -44.783726      -10.373996
 C         -16.460455      -43.697029      -11.053511
 C         -16.240492      -46.180862      -10.635812
 C         -16.603125      -43.903755      -12.545609
 C         -16.495182      -46.371464      -12.153683
 C         -17.289185      -45.213020      -12.812841
 H         -15.981546      -42.723991      -10.922109
 H         -17.500170      -43.543785      -10.609042
 H         -15.653280      -47.036167      -10.146708
 H         -17.264765      -46.275429      -10.159256
 H         -15.648671      -43.868778      -13.074187
 H         -17.185717      -43.033409      -12.908294
 H         -17.099321      -47.282593      -12.305132
 H         -15.502498      -46.543919      -12.699780
 H         -17.379572      -45.407116      -13.874037
 H         -18.243879      -45.212326      -12.271958
