20
 generated by VMD
 C         -57.938629     -168.318176      -55.049080
 N         -56.812138     -168.554688      -54.891533
 H         -61.491352     -167.567032      -55.453869
 H         -58.962219     -168.096970      -55.298416
 C         -62.255524     -166.987946      -56.044872
 C         -62.673141     -167.557144      -57.333427
 C         -63.092800     -165.757431      -55.574829
 C         -64.146652     -167.484863      -57.755077
 C         -64.579285     -165.722702      -55.997017
 C         -64.718544     -166.087402      -57.432182
 H         -62.487946     -168.684509      -57.367550
 H         -62.217434     -167.076431      -58.262928
 H         -63.011784     -165.498703      -54.493992
 H         -62.723598     -164.846573      -55.974804
 H         -64.764786     -168.150070      -57.131107
 H         -64.317604     -167.751175      -58.818306
 H         -64.934982     -164.735199      -55.748165
 H         -64.899940     -166.546478      -55.294876
 H         -65.796509     -166.090012      -57.740734
 H         -64.277679     -165.278336      -58.046333
