20
 generated by VMD
 C         -68.986481     -184.834717      -66.509811
 N         -69.494789     -185.396240      -67.372322
 H         -69.854858     -182.909348      -63.168327
 H         -68.583679     -184.329544      -65.586884
 C         -69.241486     -183.453369      -62.486408
 C         -69.829163     -184.557419      -61.726963
 C         -68.094139     -182.644669      -61.812454
 C         -68.758606     -185.606430      -61.326683
 C         -67.050217     -183.687164      -61.232819
 C         -67.689087     -184.882874      -60.439896
 H         -70.530212     -185.084152      -62.377632
 H         -70.392448     -184.182098      -60.823288
 H         -67.571686     -181.981689      -62.547867
 H         -68.453804     -181.990982      -61.099735
 H         -68.118454     -185.982422      -62.220627
 H         -69.176659     -186.540863      -60.837318
 H         -66.251701     -183.130844      -60.723629
 H         -66.443634     -184.204422      -62.007320
 H         -66.918266     -185.542267      -60.165531
 H         -68.101669     -184.473053      -59.506031
