20
 generated by VMD
 C         -29.684193      -74.012840      -20.542704
 N         -30.026833      -75.090210      -20.257063
 H         -26.789152      -74.199173      -18.995865
 H         -29.587555      -72.857559      -20.692596
 C         -26.406279      -74.174751      -20.016571
 C         -26.001650      -75.349045      -20.860252
 C         -26.050491      -72.824928      -20.407192
 C         -26.023973      -74.902336      -22.380266
 C         -26.022736      -72.631279      -21.902369
 C         -25.330908      -73.596039      -22.718004
 H         -26.746344      -76.020248      -20.751040
 H         -25.000105      -75.617393      -20.513412
 H         -26.710640      -72.045387      -20.014194
 H         -25.089554      -72.633942      -20.098194
 H         -27.115805      -74.726952      -22.670509
 H         -25.693342      -75.693573      -23.084269
 H         -25.628536      -71.744293      -22.215939
 H         -27.072508      -72.523354      -22.250187
 H         -25.253769      -73.491753      -23.829411
 H         -24.261868      -73.598267      -22.437931
