20
 generated by VMD
 C         -38.346336     -112.904137      -36.310936
 N         -37.247322     -112.589279      -36.470490
 H         -41.293915     -114.831909      -34.740467
 H         -39.450993     -112.898018      -36.284679
 C         -42.251842     -114.701210      -35.368252
 C         -42.077690     -114.757751      -36.902199
 C         -43.419960     -114.015312      -34.719177
 C         -43.417526     -114.914803      -37.584770
 C         -44.711800     -114.404205      -35.602360
 C         -44.495522     -113.962433      -37.019810
 H         -41.250492     -115.575249      -37.002014
 H         -41.645054     -113.764458      -37.174934
 H         -43.665035     -114.271828      -33.661484
 H         -43.320328     -112.952927      -34.861179
 H         -43.737881     -115.995399      -37.574150
 H         -43.262375     -114.733490      -38.666092
 H         -45.473061     -113.819763      -35.017319
 H         -44.835026     -115.535065      -35.703415
 H         -45.385441     -114.080894      -37.540958
 H         -44.240192     -112.916077      -37.012951
