20
 generated by VMD
 C         -51.266838     -130.017136      -45.035698
 N         -51.741035     -129.313934      -45.843197
 H         -48.325249     -129.741653      -43.287498
 H         -51.117699     -130.753754      -44.226318
 C         -47.990749     -129.977631      -42.284237
 C         -47.896423     -131.272018      -41.675900
 C         -47.452599     -128.835556      -41.603603
 C         -46.596931     -131.639984      -41.050770
 C         -46.029411     -129.064621      -41.053005
 C         -46.029549     -130.406036      -40.217560
 H         -48.231834     -132.088013      -42.464008
 H         -48.644363     -131.257477      -40.920254
 H         -47.436642     -127.946709      -42.203674
 H         -48.162205     -128.458344      -40.681881
 H         -45.790913     -131.834824      -41.753906
 H         -46.579178     -132.445572      -40.365093
 H         -45.800686     -128.188568      -40.404026
 H         -45.384686     -129.005508      -41.905720
 H         -45.018616     -130.543091      -39.792648
 H         -46.677624     -130.259232      -39.361732
