20
 generated by VMD
 C         -38.810223     -115.675049      -35.420158
 N         -39.348248     -115.347885      -34.470840
 H         -41.472973     -115.495865      -37.061924
 H         -38.039364     -115.853729      -36.197598
 C         -42.455482     -115.678467      -37.271137
 C         -42.937885     -115.512535      -38.702904
 C         -43.454247     -115.478371      -36.136765
 C         -44.282215     -116.222252      -38.878620
 C         -44.718811     -116.288246      -36.409039
 C         -45.242046     -115.791298      -37.754841
 H         -42.163815     -115.942528      -39.320995
 H         -43.053139     -114.516121      -39.120407
 H         -42.957539     -115.750229      -35.237148
 H         -43.525070     -114.392578      -36.038170
 H         -44.115250     -117.304924      -38.813103
 H         -44.608276     -116.069267      -39.904949
 H         -45.448837     -116.035637      -35.699944
 H         -44.514393     -117.299026      -36.280567
 H         -46.257072     -116.289711      -38.137318
 H         -45.218746     -114.743408      -37.857712
