20
 generated by VMD
 C          -1.393909      -11.769166        1.565400
 N          -1.082263      -12.392895        0.654779
 H          -3.807782      -13.109160        0.580143
 H          -5.657937      -13.004631        0.753036
 C          -4.740688      -13.576850        0.983782
 C          -4.496550      -13.878174        2.455164
 C          -4.762739      -14.968698        0.178290
 C          -5.705743      -14.733647        2.952888
 C          -5.857924      -15.826332        0.695735
 C          -5.877135      -16.078554        2.185457
 H          -4.471961      -12.924806        2.943452
 H          -3.517243      -14.362630        2.541971
 H          -5.007248      -14.745358       -0.941469
 H          -3.684918      -15.354524        0.235608
 H          -6.591889      -14.145514        2.715986
 H          -5.632660      -14.878469        4.008841
 H          -5.946739      -16.755840        0.184761
 H          -6.814607      -15.331940        0.497627
 H          -6.835977      -16.569227        2.519525
 H          -5.024022      -16.774414        2.459583
