20
 generated by VMD
 C         -22.199518      -52.894978      -12.371298
 N         -23.265036      -52.446377      -12.681774
 H         -20.254642      -53.898708      -14.225537
 H         -21.201181      -53.470184      -12.536793
 C         -19.339127      -53.725662      -13.715955
 C         -18.821890      -52.350834      -13.831283
 C         -18.332069      -54.777336      -13.485474
 C         -17.296183      -52.369755      -14.329160
 C         -17.186684      -54.313499      -12.587326
 C         -16.391146      -53.197651      -13.315499
 H         -18.983847      -51.790932      -12.918878
 H         -19.420246      -51.754940      -14.516674
 H         -18.883963      -55.591293      -13.025820
 H         -17.952496      -55.029987      -14.484892
 H         -16.917368      -51.347668      -14.344818
 H         -17.158049      -52.760513      -15.324004
 H         -16.504930      -55.093288      -12.426570
 H         -17.532116      -53.937988      -11.592895
 H         -15.959003      -52.503170      -12.555315
 H         -15.500320      -53.545437      -13.915011
