20
 generated by VMD
 C         -78.672897     -208.931686      -77.086693
 N         -79.575401     -208.534561      -76.475441
 H         -78.243286     -209.410477      -73.442871
 H         -77.932610     -209.423172      -77.818108
 C         -78.294586     -209.871384      -72.443245
 C         -77.072342     -209.737106      -71.536819
 C         -79.155014     -211.064240      -72.336327
 C         -77.195427     -210.389679      -70.180695
 C         -79.313538     -211.371124      -70.786095
 C         -77.987526     -211.663071      -70.045944
 H         -76.964752     -208.622299      -71.412277
 H         -76.190758     -210.176559      -71.994865
 H         -80.112885     -210.855164      -72.823952
 H         -78.684677     -211.958237      -72.892464
 H         -77.502319     -209.600494      -69.465721
 H         -76.173729     -210.760452      -69.972786
 H         -79.861168     -212.240814      -70.768120
 H         -79.943138     -210.568939      -70.167351
 H         -78.063187     -212.116608      -69.068199
 H         -77.514595     -212.441483      -70.657181
