20
 generated by VMD
 C         -59.482010     -158.329102      -57.423050
 N         -58.405022     -158.432709      -57.972713
 H         -59.845200     -158.810867      -54.089153
 H         -60.506672     -158.286957      -56.985703
 C         -59.826004     -159.477325      -53.269268
 C         -58.589153     -159.329483      -52.362278
 C         -60.684090     -160.700089      -53.245796
 C         -58.529221     -160.471329      -51.333622
 C         -60.642315     -161.570099      -52.073288
 C         -59.226585     -161.787918      -51.651417
 H         -58.633072     -158.451492      -51.650452
 H         -57.655712     -159.386765      -52.966541
 H         -61.756767     -160.553696      -53.449638
 H         -60.339787     -161.121704      -54.144619
 H         -58.887768     -160.053497      -50.346134
 H         -57.445023     -160.599075      -51.081791
 H         -61.142326     -162.502869      -52.362755
 H         -61.128323     -161.074539      -51.225052
 H         -59.249691     -162.366257      -50.701618
 H         -58.688046     -162.565704      -52.312347
