20
 generated by VMD
 C         -58.729111     -160.865219      -56.759583
 N         -58.572060     -159.963837      -57.526962
 H         -59.001217     -164.077957      -54.894306
 H         -58.788731     -161.715500      -56.085400
 C         -59.689610     -163.457077      -54.331654
 C         -59.530323     -163.305450      -52.851303
 C         -61.096622     -163.371429      -54.891891
 C         -60.365181     -162.119888      -52.397762
 C         -62.023785     -162.244507      -54.347431
 C         -61.828976     -162.365021      -52.769241
 H         -58.494762     -163.198837      -52.524879
 H         -59.958347     -164.112122      -52.344841
 H         -61.087421     -163.502563      -56.039066
 H         -61.539619     -164.350708      -54.621658
 H         -60.125755     -161.226059      -52.914093
 H         -60.227547     -161.970169      -51.271378
 H         -63.069035     -162.440674      -54.668453
 H         -61.645401     -161.296265      -54.552570
 H         -62.411991     -161.516098      -52.338703
 H         -62.288834     -163.250565      -52.442894
