20
 generated by VMD
 C         -59.097977     -168.324112      -55.153790
 N         -58.156342     -168.866440      -54.875946
 H         -62.651615     -169.194534      -55.733715
 H         -59.993664     -167.877792      -55.551243
 C         -62.546032     -168.248245      -56.318748
 C         -62.737209     -168.180527      -57.811993
 C         -62.824432     -166.966019      -55.655731
 C         -64.057884     -167.610199      -58.228558
 C         -64.170135     -166.300201      -56.004620
 C         -64.325935     -166.222015      -57.602154
 H         -62.522354     -169.188965      -58.278164
 H         -61.902199     -167.429565      -58.188972
 H         -62.679180     -167.190826      -54.646538
 H         -61.931282     -166.353561      -55.891388
 H         -64.854744     -168.305847      -57.855503
 H         -64.172180     -167.690262      -59.322979
 H         -64.208054     -165.301819      -55.463821
 H         -65.095657     -166.849701      -55.811581
 H         -65.174583     -165.668076      -57.991379
 H         -63.550777     -165.603455      -57.917126
