20
 generated by VMD
 C         -50.653709     -128.730164      -42.258636
 N         -51.596355     -128.260880      -41.833321
 H         -48.087219     -127.956749      -40.393608
 H         -49.819115     -129.302750      -42.626892
 C         -47.047600     -127.516205      -40.745422
 C         -45.873634     -128.172394      -40.153919
 C         -46.983883     -126.110458      -41.230034
 C         -44.548611     -127.731956      -40.917721
 C         -45.649326     -125.862282      -41.946167
 C         -44.440533     -126.232628      -41.088226
 H         -45.976593     -129.220932      -40.314785
 H         -45.738094     -127.934601      -39.051521
 H         -47.676662     -125.788383      -41.918053
 H         -46.927555     -125.520866      -40.309040
 H         -44.571327     -128.178619      -41.895416
 H         -43.716953     -128.067413      -40.424023
 H         -45.588078     -124.744514      -42.287804
 H         -45.573891     -126.400475      -42.953293
 H         -43.504372     -125.937912      -41.643833
 H         -44.320244     -125.637489      -40.170277
