20
 generated by VMD
 C         -69.104843     -195.791595      -64.861717
 N         -68.592888     -196.754196      -65.186157
 H         -72.172127     -194.347778      -65.596062
 H         -69.838959     -194.992981      -64.625435
 C         -72.158508     -193.933701      -66.611565
 C         -72.184380     -192.442551      -66.668121
 C         -73.108894     -194.657684      -67.529945
 C         -73.600136     -191.929810      -66.445183
 C         -74.482063     -194.213028      -67.105003
 C         -74.602142     -192.718109      -67.274071
 H         -71.908997     -192.078506      -67.643082
 H         -71.367912     -192.092148      -66.126495
 H         -72.857803     -194.432724      -68.524490
 H         -73.030052     -195.684235      -67.423759
 H         -73.677193     -190.860077      -66.765900
 H         -73.889885     -191.933121      -65.338127
 H         -74.681274     -194.458954      -66.018661
 H         -75.239311     -194.734253      -67.673393
 H         -74.671455     -192.521149      -68.295319
 H         -75.731056     -192.513809      -66.879349
