20
 generated by VMD
 C         -29.340652      -90.263405      -25.069506
 N         -29.037794      -91.388885      -25.300772
 H         -32.432316      -90.922310      -26.820702
 H         -29.796183      -89.253471      -24.801762
 C         -33.176441      -90.738297      -27.577087
 C         -34.369179      -91.556831      -27.552155
 C         -33.048779      -89.733444      -28.660965
 C         -35.545593      -90.631317      -27.327198
 C         -34.097115      -88.674042      -28.321281
 C         -35.487228      -89.286064      -28.290752
 H         -34.286694      -92.198212      -26.670341
 H         -34.471638      -92.120590      -28.401367
 H         -32.044167      -89.292473      -28.736897
 H         -33.138142      -90.230789      -29.632984
 H         -35.764744      -90.145332      -26.409363
 H         -36.542103      -91.097359      -27.616982
 H         -33.929966      -87.967926      -29.141174
 H         -33.780262      -88.237419      -27.373404
 H         -36.183937      -88.475975      -27.926729
 H         -35.865059      -89.679573      -29.283722
