20
 generated by VMD
 C         -78.310738     -209.771423      -77.088715
 N         -78.818474     -208.813004      -77.557121
 H         -78.870728     -210.789047      -73.646255
 H         -77.830513     -210.703354      -76.599007
 C         -78.787842     -211.533997      -72.927261
 C         -77.671227     -211.767151      -71.973633
 C         -79.873215     -212.524185      -72.823135
 C         -78.113106     -212.201416      -70.568802
 C         -80.478828     -212.676361      -71.468407
 C         -79.277672     -213.241913      -70.731026
 H         -77.115570     -210.828400      -71.811028
 H         -77.031464     -212.574326      -72.386063
 H         -80.641693     -212.255722      -73.578308
 H         -79.579895     -213.462387      -73.271111
 H         -78.447411     -211.415588      -69.923752
 H         -77.230347     -212.682480      -70.109543
 H         -81.229012     -213.443878      -71.377159
 H         -80.735962     -211.659439      -70.969078
 H         -79.529015     -213.403702      -69.690895
 H         -78.882851     -214.164215      -71.192848
