20
 generated by VMD
 C         -38.980717      -98.872528      -27.877556
 N         -38.543674      -99.878632      -27.574024
 H         -37.248173      -98.571404      -30.493124
 H         -39.504112      -97.866364      -27.962051
 C         -36.377934      -97.856682      -30.766026
 C         -35.678574      -98.251350      -32.081703
 C         -35.662338      -97.294861      -29.641527
 C         -34.430199      -97.391937      -32.270260
 C         -34.448532      -96.508545      -29.919159
 C         -33.587090      -97.200844      -31.025923
 H         -36.259792      -98.342842      -32.976318
 H         -35.251827      -99.260017      -31.887806
 H         -36.308876      -96.587090      -29.157057
 H         -35.487766      -98.161568      -28.924704
 H         -34.814480      -96.435020      -32.676926
 H         -33.790325      -97.676926      -33.049217
 H         -33.838356      -96.443031      -28.969355
 H         -34.740326      -95.434044      -30.210794
 H         -32.732498      -96.382454      -31.162882
 H         -33.089951      -98.104424      -30.765505
