20
 generated by VMD
 C         -21.484320      -65.765419      -17.094048
 N         -20.925592      -66.218849      -16.177481
 H         -24.077101      -63.814240      -18.289707
 H         -21.861279      -65.245644      -17.871319
 C         -24.701809      -64.744843      -18.422125
 C         -24.491507      -65.293419      -19.803452
 C         -25.222666      -65.650238      -17.384377
 C         -24.228804      -66.785355      -19.836506
 C         -25.102005      -67.163544      -17.591400
 C         -25.227560      -67.562538      -18.958786
 H         -23.763655      -64.766495      -20.362751
 H         -25.474234      -65.022873      -20.307381
 H         -24.653728      -65.502792      -16.362335
 H         -26.362560      -65.450943      -17.354973
 H         -23.190430      -66.975990      -19.429859
 H         -24.134253      -67.023865      -20.882875
 H         -25.794413      -67.658127      -16.854210
 H         -24.116381      -67.394173      -17.246346
 H         -24.965235      -68.611305      -19.096329
 H         -26.201933      -67.532104      -19.362497
