20
 generated by VMD
 C         -40.837952     -119.374191      -34.928509
 N         -39.842354     -118.852905      -35.304607
 H         -43.668999     -116.908463      -36.236824
 H         -41.869537     -119.555534      -34.623905
 C         -44.044266     -117.248352      -37.259491
 C         -43.037384     -117.715363      -38.323021
 C         -45.344681     -116.609329      -37.634682
 C         -43.717880     -118.395973      -39.426334
 C         -46.014748     -117.464867      -38.769108
 C         -44.933601     -117.596077      -39.865421
 H         -42.196163     -118.267525      -37.825058
 H         -42.495247     -116.799454      -38.564571
 H         -45.984264     -116.490532      -36.823032
 H         -45.100971     -115.634521      -38.124355
 H         -43.919224     -119.360222      -38.923111
 H         -43.040916     -118.546127      -40.232510
 H         -46.831593     -116.863121      -39.257050
 H         -46.223122     -118.469170      -38.195648
 H         -45.339664     -118.203117      -40.603058
 H         -44.671085     -116.538826      -40.152115
