20
 generated by VMD
 C         -19.739510      -58.477852      -17.202171
 N         -19.250187      -58.802402      -18.226887
 H         -22.528778      -59.817554      -16.632147
 H         -19.899467      -58.239761      -16.253525
 C         -22.703163      -60.714489      -16.161682
 C         -23.605377      -61.552494      -17.056267
 C         -22.644016      -61.244781      -14.785839
 C         -23.447683      -63.114986      -16.947918
 C         -22.068117      -62.631454      -14.827991
 C         -23.106701      -63.537754      -15.547755
 H         -23.418051      -61.347862      -18.096016
 H         -24.568594      -61.221317      -16.948380
 H         -22.100048      -60.549000      -14.154984
 H         -23.665739      -61.174488      -14.337871
 H         -22.647924      -63.447399      -17.623384
 H         -24.416504      -63.531586      -17.218447
 H         -21.761364      -63.034397      -13.889156
 H         -21.103262      -62.691242      -15.387947
 H         -22.885084      -64.600334      -15.510813
 H         -24.137115      -63.354118      -15.042250
