20
 generated by VMD
 C         -60.825859     -153.275208      -52.349022
 N         -60.790604     -153.070053      -51.222824
 H         -57.431221     -154.072723      -50.613239
 H         -60.817898     -153.535431      -53.377262
 C         -56.574055     -153.398941      -50.540848
 C         -55.575108     -153.628616      -49.532402
 C         -56.545010     -152.126709      -51.381851
 C         -54.190258     -153.233154      -49.854710
 C         -55.141685     -151.574753      -51.624176
 C         -54.058445     -151.778625      -50.530876
 H         -55.515347     -154.737717      -49.319031
 H         -55.826435     -153.023483      -48.620022
 H         -57.147675     -152.195892      -52.275040
 H         -57.032803     -151.333023      -50.787556
 H         -53.636841     -154.025742      -50.449715
 H         -53.511066     -153.186935      -49.029839
 H         -55.152599     -150.600204      -51.959564
 H         -54.800789     -152.264679      -52.537201
 H         -53.028694     -151.670044      -50.937794
 H         -54.071957     -150.883667      -49.748695
