20
 generated by VMD
 C         -31.984713      -93.040604      -26.000208
 N         -32.371452      -94.008194      -25.505383
 H         -33.823704      -94.735405      -28.439754
 H         -31.498331      -92.159813      -26.371994
 C         -34.114799      -93.708778      -28.707960
 C         -35.380146      -93.315750      -28.102545
 C         -33.555855      -93.012291      -29.930470
 C         -35.536297      -91.818008      -28.056652
 C         -33.600815      -91.497658      -29.763620
 C         -34.978863      -91.058586      -29.230572
 H         -35.657696      -93.834618      -27.139915
 H         -36.256687      -93.605324      -28.706348
 H         -32.448540      -93.178574      -29.908489
 H         -34.081081      -93.454597      -30.795605
 H         -34.909779      -91.474998      -27.214430
 H         -36.634357      -91.446671      -27.974407
 H         -33.403954      -90.942795      -30.727947
 H         -32.720684      -91.302139      -29.096148
 H         -34.969021      -89.987274      -29.139009
 H         -35.712143      -91.295143      -29.939705
