20
 generated by VMD
 C         -19.513964      -59.841476      -17.087378
 N         -18.878933      -60.724415      -16.734083
 H         -23.033352      -61.013542      -17.455914
 H         -20.209925      -59.071301      -17.217852
 C         -23.325926      -62.053207      -17.207581
 C         -24.155718      -62.877598      -18.102144
 C         -23.269051      -62.235466      -15.725610
 C         -23.824955      -64.325478      -17.883459
 C         -23.295774      -63.768551      -15.505613
 C         -24.197210      -64.632645      -16.397348
 H         -23.958221      -62.659908      -19.176924
 H         -25.273233      -62.822891      -17.800592
 H         -22.364586      -61.740154      -15.330457
 H         -24.183992      -61.697426      -15.261582
 H         -22.757463      -64.402618      -18.052654
 H         -24.266365      -65.127876      -18.536232
 H         -23.541430      -64.004379      -14.475799
 H         -22.292168      -64.157036      -15.521605
 H         -23.793627      -65.672379      -16.182501
 H         -25.305536      -64.762459      -16.223337
