20
 generated by VMD
 C         -73.914162     -201.378342      -65.331223
 N         -72.798889     -201.085159      -65.542870
 H         -75.203575     -198.086121      -66.943390
 H         -74.921059     -201.746201      -65.157547
 C         -74.533951     -197.603607      -67.632545
 C         -74.704979     -196.162491      -67.738922
 C         -73.843658     -198.273193      -68.703613
 C         -73.509987     -195.454666      -68.536957
 C         -73.744766     -197.468063      -70.046204
 C         -72.885864     -196.161377      -69.770134
 H         -74.726654     -195.560165      -66.785851
 H         -75.672348     -195.930588      -68.143456
 H         -72.891426     -198.645767      -68.294838
 H         -74.473763     -199.139008      -68.951424
 H         -72.654160     -195.286499      -67.830681
 H         -73.805374     -194.497238      -68.956291
 H         -74.820465     -197.275208      -70.326416
 H         -73.330574     -198.083664      -70.792587
 H         -71.838959     -196.474808      -69.552803
 H         -72.949402     -195.475342      -70.613609
