20
 generated by VMD
 C         -12.562842      -30.255497       -8.079606
 N         -13.221707      -30.437450       -7.193555
 H         -11.303079      -30.343658       -5.232449
 H         -10.526176      -30.883263       -3.663325
 C         -10.800766      -31.197771       -4.680723
 C          -9.611580      -31.666426       -5.359579
 C         -11.899435      -32.338539       -4.554126
 C          -9.086519      -32.907795       -4.714655
 C         -11.363974      -33.563717       -3.810288
 C         -10.124155      -34.049141       -4.438831
 H          -8.828034      -30.877022       -5.394621
 H          -9.836891      -31.807158       -6.435396
 H         -12.818384      -31.992512       -4.044456
 H         -12.183093      -32.568359       -5.587291
 H          -8.711660      -32.616215       -3.723711
 H          -8.194859      -33.248840       -5.242575
 H         -12.075508      -34.350628       -3.684463
 H         -11.120751      -33.293617       -2.749840
 H          -9.665727      -34.839146       -3.844876
 H         -10.429397      -34.505814       -5.422892
