20
 generated by VMD
 C         -39.061825     -107.910553      -37.717987
 N         -39.024555     -106.767967      -37.900173
 H         -39.834270     -108.119751      -34.190079
 H         -39.190491     -108.884956      -37.226063
 C         -40.193985     -109.088318      -34.277168
 C         -39.369457     -110.345764      -34.180664
 C         -41.728329     -109.213776      -34.151344
 C         -39.783188     -111.133141      -32.863735
 C         -42.115147     -110.087082      -32.891430
 C         -41.227917     -111.330009      -32.675571
 H         -38.275681     -110.406624      -34.129425
 H         -39.503799     -111.057121      -34.982651
 H         -42.215370     -108.221985      -34.138145
 H         -42.026283     -109.797859      -35.099911
 H         -39.299805     -110.619301      -32.038166
 H         -39.363266     -112.090889      -33.003910
 H         -43.193306     -110.416359      -33.008038
 H         -42.002483     -109.333015      -32.109894
 H         -41.370579     -111.601891      -31.603441
 H         -41.649853     -112.290337      -33.219158
