20
 generated by VMD
 C         -21.776379      -66.774620      -16.794796
 N         -20.996716      -66.918678      -15.951390
 H         -24.132347      -64.607803      -18.003035
 H         -22.433004      -66.809120      -17.752535
 C         -24.383493      -65.623550      -18.457966
 C         -24.114861      -65.995811      -19.878502
 C         -25.811621      -66.040665      -18.081186
 C         -24.305319      -67.580605      -20.003782
 C         -26.139236      -67.569427      -18.289358
 C         -25.740175      -68.054077      -19.757925
 H         -23.133398      -65.765556      -20.134630
 H         -24.818588      -65.355515      -20.486973
 H         -25.986065      -66.028267      -16.954842
 H         -26.572351      -65.413094      -18.603735
 H         -23.617647      -68.102699      -19.225864
 H         -24.022606      -67.964310      -21.000986
 H         -27.228123      -67.726860      -17.933205
 H         -25.528580      -68.213768      -17.655127
 H         -25.852978      -69.146065      -20.034508
 H         -26.294851      -67.490448      -20.471054
