20
 generated by VMD
 C          -1.511795       -9.456703        1.102657
 N          -1.798361       -9.804632        0.105654
 H          -3.023391      -11.966151        1.607666
 H          -3.786535      -12.073957        3.151763
 C          -3.618229      -12.633993        2.223534
 C          -2.977036      -14.001198        2.545167
 C          -4.948047      -12.757217        1.526936
 C          -3.906636      -14.971022        3.252833
 C          -5.869482      -13.667985        2.264518
 C          -5.301542      -15.012544        2.569212
 H          -1.987297      -13.777284        2.999625
 H          -2.704270      -14.316547        1.540171
 H          -5.421035      -11.732625        1.383943
 H          -4.744571      -13.209888        0.472743
 H          -4.041630      -14.765716        4.373866
 H          -3.573553      -16.042517        3.198014
 H          -6.800636      -13.732285        1.735485
 H          -6.139368      -13.215793        3.191455
 H          -6.030644      -15.590608        3.185437
 H          -5.173816      -15.575231        1.640546
