20
 generated by VMD
 C         -40.905849     -102.234474      -34.974747
 N         -41.570000     -102.043724      -35.872406
 H         -39.760891     -104.280472      -31.857086
 H         -40.594849     -102.368454      -33.970196
 C         -38.798023     -104.682793      -31.946892
 C         -37.777924     -104.066292      -32.835709
 C         -38.232445     -105.741516      -31.017830
 C         -36.570557     -103.722160      -32.073997
 C         -36.873909     -105.569450      -30.335346
 C         -35.875999     -104.934196      -31.308161
 H         -38.395107     -103.294609      -33.402863
 H         -37.530781     -104.798523      -33.632404
 H         -38.984680     -105.906799      -30.194912
 H         -38.247143     -106.668785      -31.531336
 H         -36.857582     -103.013290      -31.308489
 H         -35.770874     -103.229538      -32.645401
 H         -36.654949     -106.613304      -29.958166
 H         -36.915554     -104.909164      -29.528236
 H         -34.948891     -104.538055      -30.752216
 H         -35.408092     -105.565659      -32.053398
