20
 generated by VMD
 C         -57.288780     -150.938721      -48.479824
 N         -58.348362     -151.357468      -48.526478
 H         -54.140095     -148.978073      -47.239872
 H         -56.274445     -150.658646      -48.346470
 C         -54.451778     -148.689560      -48.261417
 C         -53.749859     -149.587341      -49.298931
 C         -54.567497     -147.261612      -48.846397
 C         -54.366943     -149.498962      -50.721893
 C         -55.151970     -147.070068      -50.263374
 C         -54.452877     -147.966507      -51.202110
 H         -53.473690     -150.658737      -49.009777
 H         -52.668041     -149.237320      -49.520020
 H         -55.010288     -146.630508      -48.154175
 H         -53.512890     -146.904312      -48.833195
 H         -55.373245     -149.925644      -50.870560
 H         -53.721916     -150.125107      -51.385483
 H         -55.308445     -146.108856      -50.475750
 H         -56.201427     -147.527374      -50.238060
 H         -54.945770     -147.973526      -52.190891
 H         -53.362984     -147.595703      -51.402615
