20
 generated by VMD
 C         -50.421597     -129.351929      -43.589916
 N         -50.872459     -129.981430      -44.478077
 H         -49.091328     -128.028320      -41.086880
 H         -49.788944     -128.705948      -42.955120
 C         -48.052349     -128.264023      -41.120472
 C         -47.739120     -129.714050      -41.040371
 C         -47.074055     -127.268951      -40.900814
 C         -46.454655     -130.105682      -41.655109
 C         -45.648998     -127.639343      -41.305923
 C         -45.384880     -129.125885      -41.095707
 H         -48.500225     -130.343033      -41.462162
 H         -47.619057     -130.059906      -39.966732
 H         -47.216900     -126.444839      -41.622318
 H         -47.026676     -126.902122      -39.861904
 H         -46.593632     -130.010284      -42.683311
 H         -46.106232     -131.090256      -41.424606
 H         -44.844604     -127.160172      -40.720654
 H         -45.447437     -127.279434      -42.372128
 H         -44.395115     -129.432053      -41.516628
 H         -45.173416     -129.377853      -40.001022
