20
 generated by VMD
 C         -47.599445     -138.163605      -45.804684
 N         -47.201599     -137.940247      -46.879288
 H         -50.544128     -137.541275      -44.707390
 H         -47.878300     -138.231461      -44.767895
 C         -51.390205     -138.146912      -44.981251
 C         -51.449158     -138.908051      -46.221325
 C         -52.628101     -137.861649      -44.133545
 C         -52.614319     -139.794357      -46.424541
 C         -53.653053     -138.973602      -44.292210
 C         -53.857933     -139.262100      -45.703056
 H         -50.394882     -139.284866      -46.359322
 H         -51.453846     -138.169556      -47.077164
 H         -52.387127     -137.822174      -43.073807
 H         -52.926926     -136.792816      -44.233723
 H         -52.481197     -140.828293      -46.010742
 H         -52.756271     -140.094391      -47.467712
 H         -54.579559     -138.624176      -43.802940
 H         -53.579803     -139.978912      -43.639359
 H         -54.567772     -139.930252      -45.850796
 H         -54.163303     -138.335480      -46.157188
