20
 generated by VMD
 C         -40.500282     -117.300613      -34.513626
 N         -39.475288     -116.846779      -34.865677
 H         -41.603195     -116.168060      -37.344387
 H         -41.441078     -117.715530      -34.215870
 C         -42.602692     -116.462646      -37.645355
 C         -42.967007     -116.459854      -39.077549
 C         -43.754616     -116.165901      -36.749439
 C         -44.301788     -117.014717      -39.536446
 C         -45.068756     -116.957291      -37.156616
 C         -45.487984     -116.717613      -38.501141
 H         -42.088257     -116.863380      -39.626446
 H         -43.038006     -115.412407      -39.438618
 H         -43.475861     -116.340454      -35.687977
 H         -44.019680     -115.034676      -36.697281
 H         -44.295635     -118.060188      -39.477097
 H         -44.567520     -116.724319      -40.553509
 H         -45.770527     -116.640152      -36.376915
 H         -44.819843     -118.023529      -36.874729
 H         -46.290268     -117.511635      -38.918022
 H         -45.830059     -115.606529      -38.657776
