20
 generated by VMD
 C         -59.853531     -157.551285      -56.246914
 N         -60.482853     -157.398880      -57.181385
 H         -60.075974     -157.292816      -52.764957
 H         -59.166035     -157.738159      -55.424965
 C         -59.254822     -157.946487      -52.506805
 C         -57.951954     -157.434906      -52.117710
 C         -59.405937     -159.335159      -52.930611
 C         -57.472336     -158.395828      -50.878719
 C         -59.011883     -160.158844      -51.748310
 C         -57.573380     -159.923523      -51.115921
 H         -58.162209     -156.286667      -51.828949
 H         -57.366749     -157.405792      -53.037308
 H         -60.391720     -159.644440      -53.232094
 H         -58.755081     -159.577499      -53.778343
 H         -58.081680     -158.052704      -50.048744
 H         -56.331036     -158.113373      -50.675087
 H         -59.024273     -161.285858      -51.816677
 H         -59.840046     -159.902390      -51.006626
 H         -57.362934     -160.518417      -50.254047
 H         -56.662399     -160.139374      -51.835918
