20
 generated by VMD
 C         -78.933479     -204.226990      -70.427841
 N         -79.945236     -204.810989      -70.602455
 H         -76.708824     -203.350479      -68.600166
 H         -78.073601     -203.639359      -70.527290
 C         -75.824387     -203.222717      -69.196060
 C         -75.777534     -202.043793      -70.105484
 C         -74.584335     -203.999664      -68.955009
 C         -74.468575     -201.521317      -70.630676
 C         -73.357368     -203.081573      -69.003426
 C         -73.188461     -202.442474      -70.350433
 H         -76.161049     -201.177551      -69.467789
 H         -76.458969     -202.001801      -70.929871
 H         -74.593987     -204.462036      -67.931152
 H         -74.440857     -204.689560      -69.841591
 H         -74.207802     -200.562851      -70.059898
 H         -74.553299     -201.232422      -71.708817
 H         -72.545280     -203.738617      -68.995613
 H         -73.314018     -202.259064      -68.248055
 H         -72.325058     -201.786392      -70.224312
 H         -73.196220     -203.144791      -71.119156
