20
 generated by VMD
 C         -40.327175     -105.885864      -37.026619
 N         -39.957390     -106.796486      -37.668137
 H         -38.513138     -108.567192      -35.052059
 H         -40.482513     -105.059380      -36.336906
 C         -39.102631     -108.616013      -34.104603
 C         -38.529247     -109.467018      -33.138477
 C         -40.544441     -108.914429      -34.498272
 C         -39.364227     -109.810104      -31.923710
 C         -41.386494     -109.200859      -33.243038
 C         -40.787586     -110.366188      -32.387779
 H         -37.584175     -108.955124      -32.889393
 H         -38.204372     -110.392960      -33.717911
 H         -40.966324     -108.039902      -35.098099
 H         -40.520538     -109.794640      -35.043205
 H         -39.291813     -108.913971      -31.372232
 H         -38.907707     -110.548859      -31.356441
 H         -42.377918     -109.551765      -33.538067
 H         -41.403244     -108.262794      -32.537022
 H         -41.447166     -110.550652      -31.550961
 H         -40.686832     -111.383247      -32.988674
