20
 generated by VMD
 C         -13.416552      -30.831772       -8.308055
 N         -13.147079      -30.044210       -9.042665
 H         -11.236048      -31.899139       -6.147452
 H         -11.487681      -31.982176       -4.398851
 C         -11.202166      -32.537624       -5.297202
 C          -9.683817      -32.972885       -5.137185
 C         -12.088215      -33.819859       -5.518978
 C          -9.655767      -34.005077       -3.974677
 C         -12.001851      -34.813164       -4.351682
 C         -10.532341      -35.227661       -4.184172
 H          -9.089433      -32.087200       -4.759113
 H          -9.293296      -33.404301       -6.062639
 H         -13.086054      -33.381168       -5.507368
 H         -11.840446      -34.219059       -6.510290
 H         -10.068845      -33.534523       -3.018588
 H          -8.605538      -34.407082       -3.822676
 H         -12.596908      -35.654606       -4.570302
 H         -12.288131      -34.315269       -3.357532
 H         -10.368201      -35.853912       -3.324288
 H         -10.231078      -35.856834       -5.075709
