20
 generated by VMD
 C         -11.480346      -41.957607       -6.137548
 N         -10.955474      -41.329647       -6.905344
 H         -14.499195      -40.981327       -8.495108
 H         -15.521497      -40.372723       -9.773449
 C         -15.278039      -41.377899       -9.214639
 C         -16.571447      -41.951607       -8.676459
 C         -14.581201      -42.318718      -10.166676
 C         -17.512421      -42.477348       -9.823557
 C         -15.531934      -42.964664      -11.193278
 C         -16.777246      -43.552303      -10.552605
 H         -17.136539      -41.146294       -8.172711
 H         -16.336323      -42.805984       -7.976388
 H         -13.856440      -41.824059      -10.751047
 H         -14.159062      -43.154377       -9.564735
 H         -17.684713      -41.633778      -10.475585
 H         -18.425882      -42.855541       -9.358745
 H         -14.961104      -43.721584      -11.840680
 H         -15.785367      -42.226063      -11.917789
 H         -17.470058      -43.976280      -11.274379
 H         -16.532471      -44.436775       -9.931762
