20
 generated by VMD
 C         -27.461691      -72.774208      -17.993546
 N         -28.034914      -73.442200      -17.239645
 H         -24.856258      -70.504578      -18.720591
 H         -26.768738      -72.244438      -18.565022
 C         -25.074423      -70.809418      -19.750084
 C         -24.551392      -72.060020      -20.359419
 C         -25.546963      -69.711174      -20.640245
 C         -25.273310      -72.552917      -21.572430
 C         -26.548578      -70.386147      -21.702171
 C         -25.743441      -71.477127      -22.427132
 H         -24.511646      -72.780281      -19.667902
 H         -23.505852      -71.886696      -20.582897
 H         -26.021208      -69.038582      -19.969627
 H         -24.695242      -69.168922      -21.087080
 H         -26.093279      -73.249580      -21.515768
 H         -24.486206      -73.002464      -22.163889
 H         -26.797373      -69.629036      -22.421595
 H         -27.304420      -70.786461      -21.040932
 H         -26.365238      -71.852943      -23.330030
 H         -24.851145      -71.138657      -22.957403
