20
 generated by VMD
 C          -6.788663      -23.310303        3.277423
 N          -6.721900      -22.697113        2.331413
 H          -7.646300      -22.461960       -0.491010
 H          -8.935758      -22.331968       -1.681208
 C          -7.883061      -22.103638       -1.467349
 C          -6.956146      -22.895525       -2.515267
 C          -7.550780      -20.574625       -1.507756
 C          -7.052508      -22.200806       -3.930469
 C          -7.595817      -19.962290       -2.917186
 C          -6.691553      -20.708580       -3.872583
 H          -7.263798      -23.940210       -2.659299
 H          -5.883737      -22.969339       -2.195463
 H          -8.261260      -20.043869       -0.892262
 H          -6.547336      -20.363325       -1.083700
 H          -8.057933      -22.391891       -4.294695
 H          -6.397430      -22.673717       -4.633714
 H          -7.303692      -18.929993       -2.782480
 H          -8.603020      -19.991209       -3.356570
 H          -6.776460      -20.193506       -4.849838
 H          -5.611746      -20.662239       -3.595224
