20
 generated by VMD
 C         -20.620586      -52.293285       -9.661024
 N         -21.168150      -51.851246      -10.535802
 H         -18.542444      -49.700844      -10.817826
 H         -19.692501      -52.624870       -8.967778
 C         -17.843170      -49.722340      -11.686210
 C         -17.478580      -51.068882      -12.120090
 C         -17.269083      -48.470413      -12.256848
 C         -16.841675      -51.027229      -13.479781
 C         -16.786785      -48.601845      -13.712729
 C         -15.928579      -49.858452      -13.990474
 H         -18.306990      -51.844063      -12.036069
 H         -16.720293      -51.436623      -11.399274
 H         -18.102228      -47.762791      -12.287940
 H         -16.444881      -48.041084      -11.590023
 H         -17.626143      -51.145203      -14.228595
 H         -16.252222      -51.933681      -13.608699
 H         -16.243444      -47.707947      -13.891051
 H         -17.601414      -48.595177      -14.529588
 H         -15.838993      -49.970726      -15.043395
 H         -14.979869      -49.779995      -13.514367
