20
 generated by VMD
 C         -68.034554     -185.191452      -67.883720
 N         -67.589066     -185.757721      -66.976357
 H         -69.421936     -185.374420      -64.457520
 H         -68.466949     -184.526810      -68.624458
 C         -69.698090     -185.794189      -63.503872
 C         -70.881157     -185.390625      -62.599579
 C         -68.976120     -187.046906      -63.181923
 C         -70.449081     -185.278992      -61.161995
 C         -68.600441     -187.001282      -61.732632
 C         -69.603340     -186.452972      -60.702808
 H         -71.700638     -186.069687      -62.894066
 H         -71.343445     -184.508179      -62.972794
 H         -69.644447     -187.854935      -63.443729
 H         -68.165985     -187.368515      -63.756008
 H         -71.319298     -185.085266      -60.438274
 H         -69.926819     -184.339859      -61.112148
 H         -67.697746     -186.447556      -61.681210
 H         -68.219330     -187.918655      -61.306656
 H         -70.135910     -187.167435      -60.304844
 H         -68.958092     -186.256821      -59.867165
