20
 generated by VMD
 C         -66.159065     -177.894760      -56.904686
 N         -67.151512     -177.361908      -57.098656
 H         -63.839794     -175.470551      -58.537712
 H         -65.228516     -178.393814      -56.575699
 C         -64.368011     -174.824188      -59.352917
 C         -65.638802     -174.038055      -59.124321
 C         -63.414120     -174.425705      -60.411110
 C         -65.293762     -172.546585      -59.096977
 C         -63.022312     -173.039307      -60.369080
 C         -64.279068     -172.165176      -60.280403
 H         -66.100204     -174.422592      -58.251717
 H         -66.329552     -174.118881      -60.011086
 H         -62.432907     -175.040176      -60.237076
 H         -63.748165     -174.606049      -61.461315
 H         -64.754517     -172.380859      -58.179150
 H         -66.231010     -172.026199      -59.149010
 H         -62.366573     -172.660721      -61.221947
 H         -62.416008     -172.985565      -59.497913
 H         -64.080917     -171.131927      -60.038807
 H         -64.778435     -172.238739      -61.266632
