20
 generated by VMD
 C         -68.989319     -180.673111      -61.059944
 N         -69.850899     -181.140915      -60.419724
 H         -67.095612     -178.596649      -59.573818
 H         -68.210526     -180.129761      -61.654732
 C         -66.339874     -177.770386      -59.812187
 C         -65.820038     -177.813568      -61.261784
 C         -65.374306     -177.238144      -58.771957
 C         -64.983055     -176.496033      -61.640377
 C         -64.493187     -176.076416      -59.379971
 C         -63.906513     -176.358170      -60.662708
 H         -66.640335     -177.912384      -61.987972
 H         -65.183372     -178.621124      -61.477760
 H         -66.075981     -176.912979      -57.904884
 H         -64.826965     -178.083786      -58.434673
 H         -65.787048     -175.737762      -61.885956
 H         -64.543213     -176.700409      -62.653206
 H         -63.717945     -175.890244      -58.653538
 H         -65.197563     -175.234085      -59.376213
 H         -63.334183     -175.421204      -61.115116
 H         -63.244827     -177.272232      -60.618565
