20
 generated by VMD
 C         -49.475838     -133.024063      -47.125118
 N         -49.742901     -131.822418      -47.008205
 H         -47.804832     -134.319305      -44.454880
 H         -48.983158     -133.969238      -47.288074
 C         -48.648933     -134.618225      -43.806366
 C         -49.126560     -135.958893      -43.898540
 C         -49.477329     -133.579590      -43.048904
 C         -50.007854     -136.537094      -42.735882
 C         -50.353764     -134.190567      -41.894253
 C         -51.058460     -135.481430      -42.283543
 H         -48.260380     -136.573669      -43.993561
 H         -49.661568     -136.105347      -44.885273
 H         -48.765446     -132.850677      -42.594048
 H         -50.078407     -132.945404      -43.860794
 H         -49.304306     -136.772797      -41.956696
 H         -50.302380     -137.433105      -43.182655
 H         -51.188267     -133.567230      -41.598415
 H         -49.774494     -134.291550      -41.043907
 H         -51.552723     -135.929443      -41.495026
 H         -51.748760     -135.307587      -43.071110
