20
 generated by VMD
 C         -55.914021     -149.158401      -45.822742
 N         -55.628933     -150.029205      -45.087639
 H         -54.397182     -148.319733      -48.157742
 H         -56.173630     -148.418152      -46.602486
 C         -54.211445     -147.441315      -48.751484
 C         -53.055412     -147.491272      -49.849392
 C         -54.777390     -145.993118      -48.538513
 C         -53.545643     -146.738800      -51.145180
 C         -55.336018     -145.345642      -49.850876
 C         -54.061028     -145.313232      -50.795513
 H         -52.651703     -148.435410      -49.949650
 H         -52.203423     -146.834122      -49.558979
 H         -55.612289     -145.998276      -47.835869
 H         -53.985298     -145.309021      -48.007988
 H         -54.331585     -147.432129      -51.611698
 H         -52.760696     -146.606155      -51.922958
 H         -55.746563     -144.287277      -49.740520
 H         -55.941086     -146.102509      -50.284809
 H         -54.457588     -144.956726      -51.790062
 H         -53.416836     -144.605057      -50.321117
