20
 generated by VMD
 C         -30.153786      -74.060410      -20.661869
 N         -29.977114      -75.166794      -20.376030
 H         -27.335918      -74.436180      -19.274706
 H         -30.205433      -73.209061      -21.224754
 C         -26.688719      -74.360344      -20.131216
 C         -26.098593      -75.501114      -20.937599
 C         -26.028225      -73.054115      -20.404308
 C         -25.973160      -75.127312      -22.478180
 C         -25.888313      -72.675415      -21.861258
 C         -25.295858      -73.798676      -22.713045
 H         -26.768208      -76.498169      -20.770149
 H         -25.140051      -75.763573      -20.461802
 H         -26.463470      -72.140427      -20.016293
 H         -24.931391      -73.060608      -19.928627
 H         -26.860975      -75.039795      -23.052679
 H         -25.396931      -75.939224      -22.900621
 H         -25.163895      -71.745552      -21.924147
 H         -26.945621      -72.405708      -22.230053
 H         -25.195631      -73.549614      -23.740602
 H         -24.283293      -73.961365      -22.356136
