20
 generated by VMD
 C         -22.147228      -67.278305      -16.390877
 N         -21.065590      -66.988358      -16.116827
 H         -23.869215      -65.541412      -17.737301
 H         -23.214413      -67.650200      -16.741579
 C         -24.371504      -66.045357      -18.504585
 C         -23.864376      -66.460571      -19.784647
 C         -25.897512      -66.218201      -18.249779
 C         -24.451982      -67.841591      -20.290880
 C         -26.331711      -67.669807      -18.583393
 C         -25.932724      -68.116638      -20.071167
 H         -22.794695      -66.327087      -19.833830
 H         -24.318544      -65.650970      -20.521023
 H         -26.240097      -65.972382      -17.217522
 H         -26.421659      -65.419952      -18.781040
 H         -23.815893      -68.608604      -19.735409
 H         -24.173700      -67.981949      -21.361351
 H         -27.465279      -67.818886      -18.443785
 H         -25.800980      -68.350105      -17.835915
 H         -26.133554      -69.201653      -20.249603
 H         -26.431673      -67.615372      -20.865988
