20
 generated by VMD
 C         -29.844477      -79.957825      -26.491005
 N         -30.048315      -78.978233      -25.875488
 H         -28.711271      -82.899612      -25.815100
 H         -29.504181      -80.934296      -26.793537
 C         -29.250463      -82.875229      -24.842684
 C         -28.826326      -81.927452      -23.724737
 C         -29.922962      -84.127808      -24.389860
 C         -29.892349      -81.645554      -22.653288
 C         -31.088516      -83.796486      -23.458601
 C         -30.726465      -83.000679      -22.215954
 H         -28.387871      -80.982689      -24.150717
 H         -27.907227      -82.416626      -23.357374
 H         -30.287310      -84.788490      -25.118744
 H         -29.095360      -84.683777      -23.892797
 H         -30.744102      -81.058144      -23.044294
 H         -29.444746      -81.266518      -21.671865
 H         -31.492920      -84.714943      -23.184776
 H         -31.761337      -83.316109      -24.148397
 H         -31.632215      -82.655426      -21.606421
 H         -30.226542      -83.692795      -21.506067
