20
 generated by VMD
 C         -19.978725      -59.675060      -17.505033
 N         -19.400774      -58.894836      -18.208929
 H         -23.381483      -59.778431      -15.970712
 H         -20.452715      -60.477501      -17.124866
 C         -22.972109      -60.735062      -16.090357
 C         -23.215750      -61.510525      -17.284441
 C         -22.935612      -61.472763      -14.692312
 C         -22.960001      -63.021912      -17.195904
 C         -22.623590      -62.956173      -14.662148
 C         -23.250132      -63.726734      -15.843112
 H         -22.709763      -61.058418      -18.077827
 H         -24.190561      -61.306538      -17.670986
 H         -22.083305      -60.967819      -14.148698
 H         -23.731390      -61.170158      -14.026931
 H         -21.876320      -63.217697      -17.352089
 H         -23.560314      -63.516228      -18.029432
 H         -22.910435      -63.412663      -13.705097
 H         -21.553030      -63.058731      -14.654774
 H         -22.918709      -64.790535      -15.958334
 H         -24.310495      -63.797379      -15.797123
