20
 generated by VMD
 C         -22.055500      -67.254509      -16.487663
 N         -21.032633      -66.920364      -16.074818
 H         -24.171762      -65.013405      -18.040432
 H         -22.965691      -67.458656      -17.212303
 C         -24.496363      -65.941582      -18.548723
 C         -23.859221      -66.447182      -19.800253
 C         -25.960291      -66.199738      -18.205713
 C         -24.379368      -67.815636      -20.239918
 C         -26.205923      -67.659218      -18.452005
 C         -25.871384      -67.908180      -19.956785
 H         -22.762627      -66.311005      -19.656525
 H         -24.317528      -65.811874      -20.445530
 H         -26.290831      -65.940628      -17.197542
 H         -26.623478      -65.638779      -18.971247
 H         -23.891455      -68.600357      -19.743853
 H         -24.249355      -67.926483      -21.322821
 H         -27.186121      -68.027451      -18.351765
 H         -25.592655      -68.269287      -17.772942
 H         -26.159294      -68.941795      -20.108395
 H         -26.429731      -67.320816      -20.771963
