20
 generated by VMD
 C         -19.908453      -59.960835      -17.681969
 N         -19.508966      -58.949875      -18.104862
 H         -22.961792      -59.669174      -16.011129
 H         -20.411674      -60.790188      -17.259357
 C         -23.051004      -60.800144      -16.007624
 C         -23.148394      -61.573959      -17.212307
 C         -23.095253      -61.496326      -14.624672
 C         -22.912252      -63.060474      -17.310461
 C         -22.673304      -62.923565      -14.696403
 C         -23.205965      -63.684105      -15.970370
 H         -22.410208      -61.047417      -17.921495
 H         -24.105587      -61.346821      -17.790495
 H         -22.494469      -60.936798      -13.907775
 H         -24.184282      -61.490913      -14.361104
 H         -21.909714      -63.382694      -17.652943
 H         -23.513626      -63.475574      -18.093588
 H         -23.023485      -63.474628      -13.835374
 H         -21.576874      -62.944736      -14.831094
 H         -22.874928      -64.698570      -15.933685
 H         -24.310436      -63.837650      -15.917835
