20
 generated by VMD
 C         -53.065414     -146.825470      -44.790154
 N         -51.916309     -146.975296      -44.650349
 H         -54.490253     -146.592361      -48.040138
 H         -54.130657     -146.552032      -44.874191
 C         -54.178917     -145.543701      -48.098713
 C         -53.092793     -145.430939      -49.101254
 C         -54.979557     -144.337479      -47.733334
 C         -53.397621     -144.593323      -50.275227
 C         -55.286747     -143.567642      -49.005642
 C         -54.061771     -143.384064      -49.851276
 H         -52.801403     -146.430847      -49.453674
 H         -52.216724     -144.952057      -48.642632
 H         -55.883621     -144.514526      -47.177448
 H         -54.478542     -143.630203      -46.989544
 H         -54.134781     -145.017090      -50.889885
 H         -52.592274     -144.425598      -50.846207
 H         -55.719727     -142.686569      -48.709831
 H         -56.101181     -144.108154      -49.573547
 H         -54.438358     -142.956345      -50.757061
 H         -53.297966     -142.688004      -49.463890
