20
 generated by VMD
 C         -41.114868     -104.603996      -35.939053
 N         -42.107491     -104.939583      -36.467175
 H         -38.221298     -104.047073      -33.238007
 H         -40.190998     -104.125099      -35.559792
 C         -38.229263     -105.072250      -32.735359
 C         -36.906059     -105.643204      -32.158524
 C         -39.089085     -106.096275      -33.418114
 C         -37.156025     -106.640633      -31.145256
 C         -39.431545     -107.101379      -32.297600
 C         -38.123264     -107.632393      -31.723045
 H         -36.397598     -104.793877      -31.611420
 H         -36.193401     -105.862473      -32.946056
 H         -40.104378     -105.691223      -33.776974
 H         -38.542313     -106.453758      -34.269772
 H         -37.536900     -106.451973      -30.171326
 H         -36.232456     -107.197968      -30.900829
 H         -39.935360     -107.979652      -32.771198
 H         -39.860931     -106.626259      -31.476160
 H         -38.377411     -108.284630      -30.925861
 H         -37.559513     -108.233398      -32.491776
