20
 generated by VMD
 C         -70.437019     -197.074173      -66.185020
 N         -69.875237     -196.115662      -65.766960
 H         -71.989334     -194.604782      -64.795296
 H         -71.163391     -197.747116      -66.537621
 C         -72.589493     -194.318436      -65.691383
 C         -72.531738     -192.891129      -66.095284
 C         -73.591576     -195.285934      -66.328354
 C         -73.545502     -192.537338      -67.179703
 C         -73.773201     -194.996399      -67.787178
 C         -73.328156     -193.599472      -68.272415
 H         -71.488480     -192.510300      -66.365105
 H         -72.609962     -192.288086      -65.155365
 H         -73.049309     -196.267334      -66.242775
 H         -74.495712     -195.126953      -65.705841
 H         -73.611572     -191.509384      -67.558678
 H         -74.519112     -192.631363      -66.714363
 H         -74.867050     -195.031601      -67.980339
 H         -73.375008     -195.778870      -68.404900
 H         -72.363411     -193.718399      -68.736763
 H         -74.078369     -193.339233      -69.170631
