20
 generated by VMD
 C         -27.838299      -72.622414      -17.947229
 N         -28.107712      -73.557121      -17.359234
 H         -24.731272      -71.025192      -18.687466
 H         -27.794924      -71.696022      -18.623657
 C         -25.093315      -71.140274      -19.739132
 C         -24.361944      -72.203239      -20.528643
 C         -25.867830      -70.019371      -20.378229
 C         -25.243147      -72.777603      -21.756746
 C         -26.390959      -70.345451      -21.769140
 C         -25.662933      -71.619255      -22.597889
 H         -24.013805      -73.065590      -19.779251
 H         -23.385786      -71.723129      -20.962103
 H         -26.759583      -69.767029      -19.801743
 H         -25.207081      -69.128799      -20.381960
 H         -26.110336      -73.266548      -21.245275
 H         -24.655910      -73.523720      -22.317659
 H         -26.236319      -69.453636      -22.435970
 H         -27.462450      -70.696922      -21.702366
 H         -26.337482      -72.115906      -23.340357
 H         -24.908268      -71.215111      -23.277327
