20
 generated by VMD
 C         -67.967651     -178.441452      -58.007149
 N         -66.939209     -178.472412      -57.463181
 H         -65.167290     -176.358459      -58.749031
 H         -68.909805     -178.418015      -58.484825
 C         -64.967278     -175.690460      -59.582512
 C         -65.991150     -174.674484      -59.964592
 C         -63.550858     -175.448776      -59.949543
 C         -65.368767     -173.227966      -59.788212
 C         -63.045742     -174.057892      -59.890797
 C         -64.043533     -173.116318      -60.560623
 H         -66.842667     -174.732300      -59.359325
 H         -66.265579     -174.895309      -61.041370
 H         -62.896805     -176.058426      -59.282692
 H         -63.419029     -175.896240      -60.976582
 H         -65.289917     -172.862106      -58.789444
 H         -66.013908     -172.496399      -60.187126
 H         -61.972466     -174.059952      -60.284569
 H         -62.965927     -173.521454      -58.975761
 H         -63.572430     -172.158417      -60.394203
 H         -64.193092     -173.337830      -61.682541
