20
 generated by VMD
 C         -47.661266     -125.609337      -39.058052
 N         -48.120621     -126.515038      -38.525105
 H         -45.378555     -122.890015      -37.899189
 H         -47.260376     -124.581184      -39.275723
 C         -45.352463     -123.108650      -38.968983
 C         -44.599957     -124.237175      -39.393009
 C         -45.684200     -121.928772      -39.823494
 C         -44.658352     -124.512459      -40.942131
 C         -45.676617     -122.299385      -41.314407
 C         -44.539749     -123.219246      -41.654366
 H         -44.723530     -125.264221      -38.820400
 H         -43.577011     -123.975830      -39.141380
 H         -46.647324     -121.507690      -39.694946
 H         -44.983864     -121.028313      -39.651787
 H         -45.656162     -124.859795      -41.198215
 H         -44.066635     -125.362587      -41.308102
 H         -45.593662     -121.375916      -41.925888
 H         -46.618134     -122.717110      -41.676601
 H         -44.673450     -123.485664      -42.746807
 H         -43.571369     -122.717743      -41.616722
