20
 generated by VMD
 C         -21.355215      -65.054420      -17.120398
 N         -20.563675      -65.474007      -16.377455
 H         -24.033060      -63.654243      -17.743620
 H         -21.905046      -64.311081      -17.790333
 C         -24.257605      -64.685684      -18.174566
 C         -24.567863      -65.017014      -19.601772
 C         -25.000805      -65.526550      -17.058256
 C         -24.371981      -66.511681      -19.727472
 C         -24.883287      -66.990601      -17.379438
 C         -25.223999      -67.217056      -18.812660
 H         -23.861267      -64.363968      -20.155643
 H         -25.570757      -64.731384      -19.908632
 H         -24.573364      -65.373375      -16.154673
 H         -26.003376      -65.140488      -16.898563
 H         -23.273582      -66.829170      -19.645674
 H         -24.715601      -66.778679      -20.765991
 H         -25.607594      -67.618286      -16.749994
 H         -23.872385      -67.240181      -17.023996
 H         -25.302061      -68.334450      -19.076023
 H         -26.203226      -66.764351      -19.021650
