20
 generated by VMD
 C         -23.356398      -53.324623      -14.170973
 N         -24.167076      -53.216084      -15.002569
 H         -20.231428      -55.273575      -15.388366
 H         -22.691730      -53.480656      -13.512193
 C         -19.599728      -55.396259      -14.514452
 C         -19.267797      -54.224380      -13.714644
 C         -18.489237      -56.430698      -14.844202
 C         -18.187937      -54.439342      -12.687173
 C         -17.714542      -56.813187      -13.585091
 C         -17.095684      -55.523590      -12.996512
 H         -20.190941      -53.904457      -13.263241
 H         -18.918522      -53.489548      -14.419604
 H         -18.815762      -57.350090      -15.364274
 H         -17.812851      -55.956707      -15.503483
 H         -18.739531      -54.724480      -11.755172
 H         -17.670971      -53.470013      -12.509940
 H         -16.892443      -57.545609      -13.880095
 H         -18.363956      -57.349998      -12.928671
 H         -16.641911      -55.772678      -12.046745
 H         -16.413486      -55.121990      -13.738924
