20
 generated by VMD
 C         -68.984253     -180.975082      -61.215340
 N         -69.937706     -180.792496      -60.604599
 H         -67.211540     -178.384079      -59.527191
 H         -68.008362     -181.073395      -61.738354
 C         -66.271530     -177.914902      -59.809380
 C         -65.849030     -178.048828      -61.194126
 C         -65.391426     -177.431595      -58.847637
 C         -64.971771     -176.949295      -61.781975
 C         -64.697968     -176.087387      -59.247395
 C         -64.058731     -176.314651      -60.693611
 H         -66.763313     -178.139648      -61.779808
 H         -65.316956     -178.975067      -61.260372
 H         -65.942322     -177.356888      -57.809742
 H         -64.586372     -178.150131      -58.689537
 H         -65.637138     -175.977036      -62.061935
 H         -64.319969     -177.222198      -62.674168
 H         -63.845043     -175.992310      -58.582348
 H         -65.280800     -175.142624      -59.180225
 H         -63.696041     -175.358185      -61.273678
 H         -63.061440     -176.870651      -60.608509
