20
 generated by VMD
 C         -79.474182     -205.374176      -71.742554
 N         -79.786026     -206.481705      -71.596275
 H         -77.181290     -204.055649      -71.842827
 H         -79.311501     -204.273071      -71.861908
 C         -76.469116     -204.182861      -71.051483
 C         -75.461685     -203.117996      -70.875443
 C         -76.419533     -205.418915      -70.173203
 C         -74.190750     -203.399994      -69.984581
 C         -75.242661     -205.446030      -69.186668
 C         -73.954155     -204.944809      -69.739685
 H         -75.868584     -202.171967      -70.483620
 H         -75.027451     -202.841751      -71.860611
 H         -77.350456     -205.595825      -69.622864
 H         -76.260254     -206.260422      -70.817406
 H         -74.316856     -202.914886      -68.983063
 H         -73.174446     -203.056946      -70.447754
 H         -75.056236     -206.367920      -68.724335
 H         -75.652298     -204.764267      -68.404732
 H         -73.043617     -205.183395      -69.082787
 H         -73.814346     -205.425507      -70.752113
