20
 generated by VMD
 C         -70.196091     -183.846680      -66.075768
 N         -69.054955     -183.583389      -66.222862
 H         -68.798477     -184.713852      -63.353130
 H         -71.220222     -184.033173      -66.001404
 C         -68.443596     -184.134659      -62.516727
 C         -68.883766     -184.739853      -61.247074
 C         -68.082573     -182.723022      -62.500454
 C         -67.798309     -184.466034      -60.220684
 C         -66.925346     -182.417114      -61.587872
 C         -67.310852     -182.951294      -60.158318
 H         -68.978088     -185.826584      -61.241211
 H         -69.890083     -184.338409      -60.940323
 H         -67.968025     -182.304214      -63.473007
 H         -69.017288     -182.227921      -62.196480
 H         -66.922165     -185.180374      -60.380093
 H         -68.101662     -184.618652      -59.169182
 H         -66.747795     -181.361664      -61.516453
 H         -66.022934     -182.832809      -62.034779
 H         -66.399078     -182.833267      -59.469059
 H         -68.193970     -182.422363      -59.741295
