20
 generated by VMD
 C         -40.394547     -116.996452      -34.369919
 N         -39.435913     -116.336235      -34.598969
 H         -41.479683     -115.855225      -38.034569
 H         -41.060894     -117.739319      -34.067749
 C         -42.520428     -115.980957      -37.976215
 C         -43.169273     -116.105827      -39.312267
 C         -43.257107     -116.057220      -36.715767
 C         -44.536480     -116.777260      -39.305634
 C         -44.586281     -116.862541      -36.823929
 C         -45.450996     -116.528580      -38.130516
 H         -42.421688     -116.466873      -39.987968
 H         -43.366344     -115.132912      -39.737831
 H         -42.661015     -116.465645      -35.932270
 H         -43.530472     -115.041466      -36.342358
 H         -44.435017     -117.910019      -39.294964
 H         -45.018623     -116.490219      -40.268532
 H         -45.260670     -116.641418      -36.037361
 H         -44.409885     -117.927109      -36.847931
 H         -46.317078     -117.286751      -38.222626
 H         -45.682995     -115.450134      -38.021694
