20
 generated by VMD
 C         -29.534199      -74.685577      -19.822083
 N         -30.596283      -74.567360      -20.267576
 H         -26.078209      -73.686035      -18.938362
 H         -28.572590      -74.553894      -19.561079
 C         -25.783087      -73.509163      -19.972763
 C         -25.399065      -74.690605      -20.797794
 C         -25.361940      -72.220955      -20.490074
 C         -26.061943      -74.652084      -22.082573
 C         -26.117382      -72.030830      -21.872507
 C         -25.696800      -73.305817      -22.707483
 H         -25.667255      -75.660034      -20.146250
 H         -24.295527      -74.790176      -20.868307
 H         -25.710400      -71.361496      -19.976917
 H         -24.254274      -72.037590      -20.606478
 H         -27.169395      -74.795601      -22.083408
 H         -25.588350      -75.436539      -22.737267
 H         -25.799292      -71.070625      -22.325140
 H         -27.149178      -72.119865      -21.730610
 H         -26.178295      -73.269882      -23.702232
 H         -24.589375      -73.455696      -22.996552
