20
 generated by VMD
 C          -1.372866      -10.887293        0.745838
 N          -1.062580      -10.126733        1.517694
 H          -3.822858      -12.749281        0.357190
 H          -4.907477      -12.334565        1.657579
 C          -4.367650      -13.166878        1.188541
 C          -3.437778      -13.904831        2.200572
 C          -5.416071      -14.067520        0.552738
 C          -4.291089      -14.658895        3.301708
 C          -6.243742      -14.724698        1.668154
 C          -5.411456      -15.479830        2.672617
 H          -2.815655      -13.188405        2.614050
 H          -2.836376      -14.597461        1.657896
 H          -6.143246      -13.544852       -0.057746
 H          -5.056704      -14.846724       -0.140266
 H          -4.718415      -13.847131        3.879381
 H          -3.573452      -15.214810        3.830168
 H          -7.062752      -15.358477        1.271810
 H          -6.680151      -13.860781        2.201728
 H          -6.071122      -15.938127        3.482633
 H          -4.913935      -16.283161        2.073780
