20
 generated by VMD
 C         -50.104717     -131.131363      -46.564693
 N         -50.298885     -131.511414      -47.663483
 H         -48.315258     -131.933182      -44.042641
 H         -49.817307     -131.009232      -45.501980
 C         -48.843029     -132.310791      -43.200314
 C         -49.531841     -133.607361      -43.202557
 C         -48.745140     -131.610641      -41.863144
 C         -48.752956     -134.562698      -42.247162
 C         -47.923389     -132.477509      -41.009304
 C         -48.483143     -133.897827      -40.856731
 H         -49.693253     -133.939026      -44.317616
 H         -50.475090     -133.482391      -42.743252
 H         -48.277691     -130.550339      -41.995007
 H         -49.703800     -131.405167      -41.304585
 H         -47.869221     -134.808899      -42.809299
 H         -49.392719     -135.432434      -42.298008
 H         -47.690483     -132.262177      -39.970627
 H         -46.833107     -132.602524      -41.403900
 H         -47.778069     -134.498993      -40.277626
 H         -49.553982     -133.726654      -40.424149
