20
 generated by VMD
 C         -13.691297      -29.368208       -7.342443
 N         -13.459296      -29.082071       -8.399755
 H         -11.480369      -30.279152       -4.771655
 H          -9.967162      -30.237144       -3.676247
 C         -10.669024      -30.838467       -4.324824
 C          -9.823046      -31.422630       -5.395199
 C         -11.307365      -31.969398       -3.451344
 C          -8.750779      -32.372829       -5.015205
 C         -10.071505      -32.861240       -2.925386
 C          -9.177750      -33.390125       -3.982721
 H          -9.434957      -30.569407       -5.980291
 H         -10.517310      -31.938381       -6.147773
 H         -11.918334      -31.619944       -2.606041
 H         -11.898666      -32.677498       -4.078094
 H          -8.011729      -31.727837       -4.550453
 H          -8.288254      -32.898083       -5.836809
 H         -10.552662      -33.652115       -2.271489
 H          -9.506607      -32.253292       -2.265712
 H          -8.282033      -33.791889       -3.508029
 H          -9.717325      -34.086582       -4.580771
