20
 generated by VMD
 C         -40.071503     -100.748665      -30.856922
 N         -40.413403      -99.890915      -31.612240
 H         -37.389626     -103.119781      -31.213585
 H         -39.723400     -101.534393      -30.185671
 C         -36.579281     -102.308540      -31.252317
 C         -36.507954     -101.598213      -32.648655
 C         -35.759583     -101.773491      -30.026260
 C         -36.167648     -100.093933      -32.441486
 C         -35.542221     -100.295128      -29.899746
 C         -35.352070      -99.569199      -31.285145
 H         -37.480770     -101.627205      -33.171810
 H         -35.702610     -102.088028      -33.250427
 H         -36.362278     -102.185982      -29.166981
 H         -34.906441     -102.359276      -29.854696
 H         -37.002331      -99.504219      -32.247070
 H         -35.716373      -99.801437      -33.384445
 H         -34.673927     -100.129890      -29.286568
 H         -36.373348      -99.882614      -29.255899
 H         -35.461475      -98.506706      -31.024651
 H         -34.340370      -99.627182      -31.690857
