20
 generated by VMD
 C         -50.723988     -129.605133      -45.468121
 N         -51.430317     -130.503052      -45.744389
 H         -48.579048     -130.599274      -43.907433
 H         -50.144089     -128.745850      -45.238491
 C         -48.123951     -130.729858      -42.846359
 C         -48.324085     -132.166412      -42.181992
 C         -47.857086     -129.545074      -41.978714
 C         -47.115112     -132.370667      -41.205948
 C         -46.659073     -129.868393      -41.074921
 C         -46.802933     -131.191574      -40.324471
 H         -48.369465     -132.964203      -42.871624
 H         -49.247551     -132.319656      -41.521790
 H         -47.639462     -128.612366      -42.616833
 H         -48.660683     -129.428833      -41.340412
 H         -46.242592     -132.633560      -41.841400
 H         -47.218842     -133.246063      -40.524677
 H         -46.530849     -129.024078      -40.417274
 H         -45.719227     -130.049042      -41.676197
 H         -45.900303     -131.351273      -39.718712
 H         -47.541317     -130.900528      -39.537769
