20
 generated by VMD
 C         -50.549908     -130.096329      -46.249386
 N         -50.872543     -130.165695      -45.083076
 H         -48.253822     -131.887878      -44.519035
 H         -50.039207     -129.678329      -47.101189
 C         -48.045300     -131.962936      -43.426998
 C         -48.261772     -133.284470      -42.589291
 C         -48.001694     -130.592865      -42.735645
 C         -47.738621     -133.154724      -41.129211
 C         -47.583797     -130.671585      -41.295906
 C         -48.114079     -131.851349      -40.480152
 H         -47.809879     -134.275406      -42.969322
 H         -49.294525     -133.443756      -42.591579
 H         -47.296555     -129.955368      -43.135006
 H         -49.021996     -130.215912      -42.874889
 H         -46.622124     -133.272034      -41.252373
 H         -48.056824     -134.058014      -40.573235
 H         -47.765755     -129.769379      -40.688961
 H         -46.591400     -130.861267      -41.206146
 H         -47.665607     -131.940826      -39.523491
 H         -49.202141     -131.742889      -40.381577
