20
 generated by VMD
 C         -40.294178     -107.078766      -37.769596
 N         -39.245628     -106.619530      -37.875896
 H         -38.841000     -108.184479      -34.266426
 H         -41.221191     -107.635445      -37.844925
 C         -39.484798     -108.899757      -33.867786
 C         -38.869366     -110.156654      -33.445354
 C         -40.876312     -108.911156      -34.276001
 C         -39.685341     -110.774551      -32.279629
 C         -41.755638     -109.515984      -33.197540
 C         -41.160130     -110.938187      -32.684635
 H         -37.879398     -109.976730      -33.230331
 H         -38.768963     -110.747009      -34.339737
 H         -41.157211     -107.821747      -34.549171
 H         -40.907528     -109.516098      -35.190742
 H         -39.544052     -110.119217      -31.308056
 H         -39.300690     -111.759262      -32.127781
 H         -42.816273     -109.652557      -33.538891
 H         -41.915298     -108.711533      -32.333427
 H         -41.793465     -111.325371      -31.876740
 H         -41.155094     -111.718002      -33.550297
