20
 generated by VMD
 C         -11.631098      -41.470535       -6.774500
 N         -11.385184      -42.402775       -6.223571
 H         -14.700062      -42.449604       -8.240785
 H         -15.232928      -41.390354       -9.762379
 C         -15.331616      -42.371078       -9.242627
 C         -16.782372      -42.588802       -8.868441
 C         -14.769110      -43.418949      -10.214140
 C         -17.606201      -42.537601      -10.104266
 C         -15.564000      -43.398102      -11.483056
 C         -17.050892      -43.398106      -11.277458
 H         -17.132078      -41.887257       -8.082921
 H         -16.827679      -43.600204       -8.358708
 H         -13.670595      -43.238457      -10.430200
 H         -14.680321      -44.437027       -9.728395
 H         -17.735077      -41.477097      -10.410925
 H         -18.648067      -42.844990      -10.054398
 H         -15.330997      -44.271111      -11.996410
 H         -15.254894      -42.479076      -12.091706
 H         -17.452644      -42.980190      -12.184234
 H         -17.448107      -44.404415      -11.099296
