20
 generated by VMD
 C          -3.442006      -19.540390        3.059344
 N          -3.577092      -18.434990        3.137223
 H          -5.570519      -20.428083        0.092786
 H          -6.413181      -21.271996       -1.257622
 C          -6.234517      -20.279535       -0.810234
 C          -5.586604      -19.431751       -1.858489
 C          -7.516686      -19.691038       -0.218460
 C          -6.563204      -19.081051       -2.962972
 C          -8.585653      -19.547443       -1.293237
 C          -7.985667      -18.705898       -2.442919
 H          -4.801691      -20.048796       -2.245586
 H          -5.120133      -18.480598       -1.376041
 H          -7.950648      -20.463900        0.395427
 H          -7.285955      -18.764805        0.229606
 H          -6.678893      -19.948727       -3.589774
 H          -6.158857      -18.250618       -3.554314
 H          -9.494636      -19.084702       -0.949744
 H          -8.841585      -20.541426       -1.691922
 H          -8.708220      -18.694437       -3.302552
 H          -7.915125      -17.699551       -1.977528
