20
 generated by VMD
 C         -35.190975      -97.912788      -26.153654
 N         -36.301056      -97.552208      -26.243126
 H         -35.733879      -95.198128      -27.898109
 H         -34.089394      -98.161049      -26.259007
 C         -35.335400      -94.958954      -28.896156
 C         -35.815521      -95.812881      -30.056173
 C         -34.060844      -94.232857      -29.015945
 C         -35.523129      -95.159721      -31.377893
 C         -33.883781      -93.602768      -30.373808
 C         -34.112087      -94.627335      -31.562084
 H         -36.902462      -96.022110      -30.119238
 H         -35.343082      -96.751068      -29.977509
 H         -34.214378      -93.533691      -28.193048
 H         -33.201946      -94.801796      -28.662960
 H         -36.281063      -94.300102      -31.465199
 H         -35.739250      -95.822029      -32.203442
 H         -32.865711      -93.149178      -30.585876
 H         -34.597683      -92.752197      -30.494480
 H         -34.105774      -94.080856      -32.489262
 H         -33.445423      -95.378685      -31.519766
