20
 generated by VMD
 C         -60.381031     -170.128571      -55.057999
 N         -59.242348     -170.067551      -55.439167
 H         -63.658241     -170.727844      -56.974358
 H         -61.445667     -170.087997      -54.743599
 C         -63.477882     -169.697739      -57.038086
 C         -62.431698     -169.035782      -57.887714
 C         -64.240730     -168.752762      -56.180260
 C         -63.092655     -167.872086      -58.697620
 C         -64.812363     -167.619522      -57.045238
 C         -63.812641     -166.868820      -57.835552
 H         -61.817928     -169.621201      -58.687138
 H         -61.770084     -168.596939      -57.235882
 H         -65.153297     -169.178940      -55.516464
 H         -63.431610     -168.411621      -55.462494
 H         -63.766991     -168.411438      -59.384514
 H         -62.422871     -167.384232      -59.431915
 H         -65.381622     -166.965897      -56.363964
 H         -65.577217     -168.140213      -57.818253
 H         -64.286690     -166.139252      -58.468830
 H         -63.166908     -166.196930      -57.239666
