20
 generated by VMD
 C         -68.764755     -188.409409      -66.867798
 N         -68.363739     -189.458649      -66.653519
 H         -68.250778     -187.600800      -63.107521
 H         -69.218880     -187.436996      -67.116714
 C         -69.303406     -187.857346      -63.362213
 C         -69.617119     -189.277756      -63.373680
 C         -70.451019     -186.916840      -63.056313
 C         -70.808205     -189.570923      -64.241310
 C         -71.779030     -187.256180      -63.724663
 C         -72.016350     -188.808853      -63.712452
 H         -69.732651     -189.788864      -62.451893
 H         -68.712227     -189.607117      -63.778278
 H         -70.594788     -186.872940      -61.942730
 H         -70.181145     -185.968338      -63.428070
 H         -70.967712     -190.620911      -64.192490
 H         -70.660187     -189.359024      -65.335075
 H         -71.887360     -186.973175      -64.776489
 H         -72.592361     -186.708313      -63.270733
 H         -72.201538     -189.142944      -62.662991
 H         -73.031082     -189.201920      -64.178482
