20
 generated by VMD
 C         -67.674927     -177.960098      -57.706310
 N         -67.272285     -178.743225      -56.964851
 H         -64.615128     -176.305740      -58.942810
 H         -68.041000     -177.207336      -58.362595
 C         -64.602356     -175.423706      -59.610172
 C         -65.793777     -174.559906      -59.679577
 C         -63.226025     -175.076813      -60.259922
 C         -65.346184     -173.114258      -59.593014
 C         -62.957874     -173.557037      -60.173275
 C         -64.179214     -172.655594      -60.414314
 H         -66.555893     -174.755798      -58.956394
 H         -66.311798     -174.796448      -60.669994
 H         -62.648170     -175.607117      -59.547466
 H         -63.171600     -175.683441      -61.214214
 H         -65.193573     -172.801682      -58.603283
 H         -66.149200     -172.488953      -59.904926
 H         -62.185951     -173.245819      -60.914024
 H         -62.539715     -173.137344      -59.243134
 H         -64.202393     -171.577103      -60.250355
 H         -64.353813     -172.722183      -61.518188
