20
 generated by VMD
 C         -60.616501     -155.509537      -54.599697
 N         -61.133579     -156.526657      -54.418003
 H         -59.193653     -155.169373      -51.798538
 H         -60.134289     -154.583237      -54.736233
 C         -58.162529     -155.341675      -51.538589
 C         -57.470154     -154.630905      -50.455002
 C         -57.396919     -156.010757      -52.570892
 C         -56.284172     -155.280640      -49.824390
 C         -56.141834     -156.766266      -51.864586
 C         -55.424973     -155.784393      -50.846561
 H         -58.236691     -154.274704      -49.657562
 H         -57.201389     -153.636642      -50.875446
 H         -58.043777     -156.806396      -53.022324
 H         -57.075756     -155.504120      -53.473404
 H         -56.702187     -156.031708      -49.190853
 H         -55.690086     -154.425919      -49.390587
 H         -55.272297     -157.002258      -52.549911
 H         -56.584396     -157.620193      -51.398876
 H         -54.498798     -156.288101      -50.384216
 H         -55.029064     -154.935593      -51.304276
