20
 generated by VMD
 C         -20.488846      -64.515129      -17.115995
 N         -19.806812      -64.610397      -16.195627
 H         -23.585480      -63.715614      -17.865946
 H         -21.184563      -64.094307      -17.948116
 C         -24.226429      -64.530724      -17.943403
 C         -24.890862      -64.740616      -19.261917
 C         -24.913862      -65.259491      -16.916311
 C         -24.702684      -66.119743      -19.764181
 C         -24.941015      -66.738800      -17.264143
 C         -25.207581      -67.148598      -18.731316
 H         -24.458008      -63.942261      -19.978838
 H         -25.951265      -64.660233      -19.051109
 H         -24.407658      -65.061920      -16.003193
 H         -25.919308      -64.819092      -16.746937
 H         -23.628496      -66.278595      -19.947025
 H         -25.239643      -66.239471      -20.688017
 H         -25.601929      -67.239967      -16.539518
 H         -23.967955      -67.123878      -17.051256
 H         -24.539215      -68.032875      -18.991430
 H         -26.185093      -67.552307      -18.897310
