20
 generated by VMD
 C         -38.717442     -113.620514      -35.823509
 N         -37.775547     -114.301125      -35.846081
 H         -41.312298     -114.709389      -35.639717
 H         -39.683880     -113.224998      -35.600922
 C         -42.236843     -114.553413      -36.109619
 C         -42.382851     -114.459229      -37.603115
 C         -43.496014     -114.228241      -35.312008
 C         -43.546314     -115.350945      -38.103561
 C         -44.623734     -115.139626      -35.719124
 C         -44.875454     -115.093681      -37.168232
 H         -41.554878     -114.930199      -38.153111
 H         -42.558170     -113.410782      -38.004753
 H         -43.118999     -114.434235      -34.294018
 H         -43.648987     -113.136276      -35.247417
 H         -43.243359     -116.443344      -38.000854
 H         -43.899658     -115.125252      -39.097221
 H         -45.640690     -114.861168      -35.315865
 H         -44.334518     -116.085266      -35.202621
 H         -45.599548     -115.921776      -37.428406
 H         -45.243549     -114.054977      -37.543598
