20
 generated by VMD
 C         -64.544357     -175.260452      -55.916660
 N         -63.698353     -175.592743      -56.674606
 H         -65.713631     -174.162140      -58.418159
 H         -65.250511     -174.856400      -55.197899
 C         -65.068451     -173.303574      -58.713913
 C         -65.532906     -171.897339      -58.305538
 C         -64.106033     -173.318634      -59.954739
 C         -64.253708     -170.901505      -58.311386
 C         -63.201885     -172.062561      -60.064407
 C         -63.782539     -170.751663      -59.677753
 H         -65.952820     -171.750565      -57.270870
 H         -66.179749     -171.449020      -58.956913
 H         -63.419151     -174.251205      -59.900391
 H         -64.680038     -173.448410      -60.987217
 H         -63.430710     -171.151917      -57.570816
 H         -64.607872     -169.852585      -58.067326
 H         -62.858059     -171.984055      -61.101501
 H         -62.346485     -172.116974      -59.366936
 H         -62.991806     -170.042679      -59.583057
 H         -64.544235     -170.356033      -60.318058
