20
 generated by VMD
 C         -68.224937     -195.251465      -64.916512
 N         -68.792999     -196.245651      -64.585075
 H         -71.259697     -194.573914      -67.017624
 H         -67.708694     -194.456055      -65.352745
 C         -72.160797     -193.920700      -66.942055
 C         -72.066132     -192.411774      -66.852333
 C         -73.395195     -194.331863      -67.772820
 C         -73.302971     -191.988373      -66.057556
 C         -74.624275     -193.895599      -67.007378
 C         -74.642502     -192.376541      -66.710320
 H         -72.149864     -192.064209      -67.997597
 H         -71.145294     -192.152298      -66.309158
 H         -73.460060     -193.754456      -68.822624
 H         -73.382080     -195.507217      -67.917084
 H         -73.254707     -190.923294      -65.998192
 H         -73.149529     -192.462982      -65.089012
 H         -74.623741     -194.389786      -66.019836
 H         -75.516342     -194.182022      -67.505531
 H         -74.788742     -191.954407      -67.756699
 H         -75.431534     -192.214600      -66.069977
