20
 generated by VMD
 C         -12.828932      -30.033707       -7.582161
 N         -13.665580      -29.461903       -8.041265
 H         -11.483301      -30.196918       -4.792267
 H         -10.169016      -30.559715       -3.455517
 C         -10.761248      -30.961121       -4.346431
 C          -9.753242      -31.506298       -5.412842
 C         -11.567286      -32.143005       -3.868010
 C          -8.801958      -32.594440       -4.934541
 C         -10.679664      -33.144489       -3.258744
 C          -9.574702      -33.690697       -4.261309
 H          -9.212780      -30.670769       -5.726236
 H         -10.257913      -31.849258       -6.352637
 H         -12.200601      -31.728594       -3.072787
 H         -12.221625      -32.575741       -4.652243
 H          -8.085012      -32.147881       -4.180335
 H          -8.203487      -33.108982       -5.718975
 H         -11.333334      -33.973679       -2.848148
 H         -10.129732      -32.813389       -2.430280
 H          -8.925356      -34.411999       -3.648887
 H         -10.110170      -34.249619       -5.045103
