20
 generated by VMD
 C         -40.791603     -102.364861      -35.020401
 N         -41.564621     -102.222816      -35.873722
 H         -39.899258     -104.683014      -32.103313
 H         -39.919266     -102.557182      -34.367523
 C         -38.922371     -104.814400      -31.971645
 C         -37.843243     -104.036423      -32.885761
 C         -38.382233     -105.947922      -31.175695
 C         -36.521946     -103.900497      -32.044640
 C         -37.061882     -105.640892      -30.427406
 C         -35.968342     -105.080147      -31.300745
 H         -38.139252     -103.026085      -32.975502
 H         -37.497093     -104.438026      -33.819588
 H         -39.130901     -106.296280      -30.503056
 H         -38.108120     -106.809181      -31.893194
 H         -36.670040     -103.118073      -31.293869
 H         -35.762913     -103.609337      -32.762981
 H         -36.631290     -106.460190      -29.849686
 H         -37.333870     -104.797966      -29.645409
 H         -35.071110     -104.870491      -30.829052
 H         -35.754646     -105.894951      -32.011497
