20
 generated by VMD
 C         -77.355438     -202.913422      -69.349869
 N         -77.655792     -203.741791      -68.604179
 H         -74.946602     -201.578552      -67.027870
 H         -77.055626     -202.277649      -70.176422
 C         -74.845779     -201.432785      -68.110443
 C         -75.188560     -199.989365      -68.498528
 C         -73.896675     -202.293762      -68.855949
 C         -74.682243     -199.529984      -69.870071
 C         -73.229889     -201.566528      -70.040001
 C         -74.097389     -200.619858      -70.798950
 H         -74.780922     -199.308029      -67.705566
 H         -76.241776     -199.967911      -68.581406
 H         -73.113487     -202.859909      -68.321960
 H         -74.469147     -203.146683      -69.313576
 H         -73.899979     -198.715622      -69.639923
 H         -75.474686     -199.010132      -70.505920
 H         -72.917816     -202.370132      -70.726494
 H         -72.447632     -200.862457      -69.725174
 H         -73.539032     -200.103973      -71.649590
 H         -74.940536     -201.089874      -71.201042
