20
 generated by VMD
 C         -29.143244      -80.808235      -27.183609
 N         -30.018093      -80.242134      -27.701523
 H         -28.688536      -82.251961      -24.225761
 H         -28.187355      -81.443756      -26.962929
 C         -29.325377      -83.119080      -23.913185
 C         -29.557716      -83.396767      -22.513895
 C         -29.908550      -83.917206      -24.913025
 C         -31.068363      -83.346222      -22.220646
 C         -31.460749      -84.008644      -24.624466
 C         -31.667637      -84.406502      -23.134344
 H         -29.006601      -82.610069      -21.895920
 H         -29.100208      -84.469681      -22.338116
 H         -29.748978      -83.397430      -25.884342
 H         -29.351091      -84.875923      -24.972389
 H         -31.617487      -82.427383      -22.567068
 H         -31.257132      -83.725113      -21.124773
 H         -31.935848      -84.752853      -25.427900
 H         -31.800486      -82.972534      -24.866825
 H         -32.724125      -84.503998      -22.870483
 H         -31.227686      -85.467453      -22.858057
