20
 generated by VMD
 C         -48.031292     -133.979599      -47.628319
 N         -48.082745     -133.360733      -48.541496
 H         -49.662926     -134.049240      -44.007191
 H         -47.715179     -134.337036      -46.643303
 C         -50.049728     -135.021774      -43.669621
 C         -50.228806     -136.194824      -44.520123
 C         -51.055191     -134.731171      -42.563057
 C         -50.563988     -137.422211      -43.713989
 C         -51.376720     -136.066422      -41.815483
 C         -51.677677     -137.176819      -42.739487
 H         -49.294075     -136.433167      -45.155518
 H         -51.053398     -136.010834      -45.216187
 H         -50.695869     -133.831177      -41.970917
 H         -51.909523     -134.430679      -43.085381
 H         -49.748539     -137.689102      -43.069485
 H         -50.714500     -138.246964      -44.462769
 H         -52.311348     -135.995880      -41.167435
 H         -50.456406     -136.265594      -41.170231
 H         -51.819401     -138.059906      -42.061260
 H         -52.689297     -137.039795      -43.119698
