20
 generated by VMD
 C         -60.701485     -153.432144      -51.861504
 N         -61.404106     -154.331055      -51.764038
 H         -57.604202     -153.771545      -52.021580
 H         -59.976105     -152.617493      -51.958858
 C         -56.736671     -153.471405      -51.448284
 C         -56.555389     -153.804718      -49.933846
 C         -55.982719     -152.286469      -51.993778
 C         -55.018326     -153.932510      -49.777611
 C         -54.499897     -152.381790      -51.693748
 C         -54.341797     -152.632217      -50.207657
 H         -57.071465     -154.702026      -49.675930
 H         -56.979500     -152.897873      -49.451546
 H         -56.141094     -152.124786      -53.056103
 H         -56.386742     -151.404114      -51.545113
 H         -54.633663     -154.832214      -50.131458
 H         -54.975216     -154.090302      -48.687653
 H         -54.126904     -151.472549      -51.991871
 H         -53.904747     -153.303024      -52.136288
 H         -53.237846     -152.514343      -50.048168
 H         -54.719738     -151.874039      -49.614285
