20
 generated by VMD
 C         -69.696518     -183.196716      -65.246735
 N         -70.042267     -182.397186      -66.008316
 H         -67.844933     -184.820068      -62.845016
 H         -69.387543     -183.989319      -64.512993
 C         -67.786972     -183.992676      -62.153656
 C         -67.995918     -184.396988      -60.743195
 C         -67.776085     -182.539673      -62.676540
 C         -67.047089     -183.472488      -59.858654
 C         -67.104553     -181.642639      -61.656548
 C         -67.400017     -181.981064      -60.164646
 H         -67.505058     -185.354401      -60.574223
 H         -69.031212     -184.218674      -60.402718
 H         -67.243645     -182.664337      -63.691990
 H         -68.761604     -182.144897      -62.963116
 H         -65.974640     -183.670670      -60.065952
 H         -67.262489     -183.844666      -58.784416
 H         -67.139755     -180.529144      -61.824566
 H         -65.980713     -181.852676      -61.784096
 H         -66.758865     -181.214050      -59.624531
 H         -68.437935     -181.854645      -60.005322
