20
 generated by VMD
 C         -68.408844     -194.026428      -65.985023
 N         -67.884819     -194.583527      -65.089890
 H         -70.767181     -191.627594      -67.469666
 H         -68.601723     -193.372910      -66.893227
 C         -71.435356     -191.613541      -66.610329
 C         -72.317375     -190.391342      -66.498398
 C         -71.768135     -192.858597      -65.822922
 C         -73.815102     -190.630219      -66.203850
 C         -72.978683     -192.626404      -64.862511
 C         -74.141533     -191.938583      -65.479988
 H         -72.233917     -189.845078      -67.474266
 H         -71.878685     -189.613281      -65.743317
 H         -72.178543     -193.639816      -66.445038
 H         -70.888634     -193.230865      -65.217018
 H         -74.308304     -190.354095      -67.164001
 H         -73.981209     -189.846344      -65.421906
 H         -72.613640     -191.877563      -64.088722
 H         -73.264832     -193.607422      -64.391129
 H         -74.527931     -192.688019      -66.266754
 H         -74.912132     -191.820206      -64.812531
