20
 generated by VMD
 C          -9.051141      -23.753996        2.622764
 N          -8.470309      -24.699629        2.730083
 H          -8.414136      -23.490154       -1.275272
 H          -9.143361      -22.588188       -2.531348
 C          -8.248756      -22.990595       -2.199079
 C          -7.640588      -24.049995       -3.120099
 C          -7.259574      -21.812372       -1.999221
 C          -7.308625      -23.533976       -4.535078
 C          -6.878652      -21.211033       -3.437935
 C          -6.427903      -22.296957       -4.470510
 H          -8.441755      -24.863897       -3.208999
 H          -6.700481      -24.425610       -2.748180
 H          -7.667007      -21.004013       -1.331875
 H          -6.398764      -22.165779       -1.423974
 H          -8.191779      -23.193514       -5.025422
 H          -6.794056      -24.318085       -5.081034
 H          -6.106367      -20.431025       -3.445616
 H          -7.793572      -20.709826       -3.784497
 H          -6.267733      -21.965406       -5.532808
 H          -5.357051      -22.549196       -4.152742
