20
 generated by VMD
 C         -11.185974      -33.194790       -8.575036
 N         -10.671731      -33.920540       -9.254793
 H         -12.717731      -34.173035       -6.750475
 H         -13.041556      -34.790165       -5.081581
 C         -12.924520      -35.090214       -6.137156
 C         -11.666595      -36.005508       -6.281404
 C         -14.113668      -35.895138       -6.641765
 C         -11.773817      -37.380322       -5.573369
 C         -14.306515      -37.160851       -5.869532
 C         -13.133262      -38.108631       -5.859289
 H         -10.871345      -35.485756       -5.805676
 H         -11.419802      -36.164268       -7.336300
 H         -15.018146      -35.277973       -6.483973
 H         -14.008355      -36.017509       -7.698104
 H         -11.801863      -37.287357       -4.501514
 H         -11.002664      -38.035789       -5.928216
 H         -15.166131      -37.724049       -6.349521
 H         -14.604031      -36.944565       -4.895169
 H         -13.244423      -38.942188       -5.175560
 H         -12.974359      -38.579468       -6.875542
