20
 generated by VMD
 C         -47.564507     -137.100174      -46.135387
 N         -47.141872     -136.650375      -47.060917
 H         -50.346748     -136.182983      -45.012348
 H         -47.894917     -137.582611      -45.216640
 C         -51.080509     -137.044540      -44.857151
 C         -51.412586     -137.914154      -46.024967
 C         -52.206314     -136.901855      -43.818802
 C         -52.069042     -139.248169      -45.588512
 C         -52.920719     -138.166245      -43.535496
 C         -53.360065     -138.915070      -44.782589
 H         -50.525314     -138.194046      -46.545170
 H         -51.973103     -137.305450      -46.850082
 H         -51.741383     -136.482605      -42.898800
 H         -52.871792     -136.022888      -44.121590
 H         -51.404861     -139.878403      -45.001469
 H         -52.325218     -139.780365      -46.487156
 H         -53.740540     -138.112549      -42.921883
 H         -52.125420     -138.799561      -43.074383
 H         -53.768948     -139.844025      -44.404743
 H         -54.176838     -138.506195      -45.325272
