20
 generated by VMD
 C         -56.884884     -150.599960      -47.937588
 N         -57.885262     -150.719131      -48.475700
 H         -53.621456     -148.745560      -47.431759
 H         -55.966938     -150.569122      -47.373295
 C         -54.245182     -148.537857      -48.319897
 C         -53.522232     -149.375946      -49.402634
 C         -54.635559     -147.116241      -48.671989
 C         -54.148388     -149.115143      -50.758560
 C         -55.431557     -147.060394      -50.059818
 C         -54.724487     -147.717941      -51.185921
 H         -53.545345     -150.344574      -49.007584
 H         -52.428265     -149.140778      -49.461983
 H         -55.358803     -146.658585      -47.944237
 H         -53.764725     -146.473724      -48.740833
 H         -55.074814     -149.651001      -50.906837
 H         -53.501335     -149.516983      -51.539356
 H         -55.739067     -145.957626      -50.241043
 H         -56.266361     -147.615112      -49.882317
 H         -55.402817     -147.828857      -52.094696
 H         -53.885708     -147.115448      -51.461769
