20
 generated by VMD
 C         -38.099442     -114.003128      -35.422836
 N         -38.448410     -115.107079      -35.258129
 H         -41.434151     -114.841385      -36.241322
 H         -37.700214     -112.951988      -35.412159
 C         -42.451111     -114.801041      -36.687958
 C         -42.704941     -114.980629      -38.141647
 C         -43.560692     -114.717712      -35.624245
 C         -44.054710     -115.671875      -38.480713
 C         -44.713722     -115.676079      -36.015110
 C         -45.076069     -115.449669      -37.394634
 H         -41.982708     -115.768562      -38.462643
 H         -42.524254     -114.103554      -38.844200
 H         -43.040043     -114.898399      -34.697693
 H         -43.875172     -113.678795      -35.521198
 H         -43.863228     -116.714859      -38.540516
 H         -44.350883     -115.361710      -39.511768
 H         -45.571583     -115.395226      -35.327778
 H         -44.437386     -116.765205      -35.777119
 H         -45.920223     -116.124306      -37.668743
 H         -45.300789     -114.333809      -37.533787
