20
 generated by VMD
 C         -49.480278     -127.536156      -39.467949
 N         -50.471817     -127.433205      -40.040447
 H         -47.065216     -127.215187      -42.523331
 H         -48.695103     -127.631714      -38.713478
 C         -46.271023     -126.560898      -42.050602
 C         -45.631714     -127.092079      -40.845436
 C         -46.563408     -125.145996      -42.044189
 C         -44.425728     -126.334305      -40.323605
 C         -45.416832     -124.226952      -41.590279
 C         -44.756035     -124.767670      -40.291676
 H         -45.409294     -128.057571      -41.203938
 H         -46.446049     -127.063972      -40.042347
 H         -46.982330     -124.735619      -42.990795
 H         -47.346317     -124.964539      -41.359829
 H         -43.538338     -126.496178      -40.957031
 H         -44.092537     -126.659111      -39.306900
 H         -45.893177     -123.235176      -41.447906
 H         -44.577415     -124.199875      -42.295475
 H         -43.891808     -124.202866      -39.901199
 H         -45.435627     -124.737244      -39.418140
