20
 generated by VMD
 C         -51.870102     -146.139450      -43.950092
 N         -51.607243     -146.428909      -45.007820
 H         -53.865440     -145.754471      -47.228699
 H         -52.174549     -145.848587      -42.987492
 C         -53.937828     -144.781754      -47.693111
 C         -52.855652     -144.663422      -48.803333
 C         -54.838257     -143.705704      -47.496353
 C         -53.472393     -144.136414      -50.155983
 C         -55.355347     -143.149963      -48.793575
 C         -54.267338     -142.838547      -49.820663
 H         -52.519691     -145.647644      -49.075680
 H         -51.901852     -143.974518      -48.695045
 H         -55.688286     -143.985474      -46.893139
 H         -54.371243     -142.978058      -47.003101
 H         -54.164631     -144.838837      -50.549191
 H         -52.690861     -143.898682      -50.799042
 H         -55.977097     -142.330399      -48.559258
 H         -56.009102     -143.858582      -49.382126
 H         -54.586491     -142.302368      -50.803432
 H         -53.409298     -142.267548      -49.337040
