20
 generated by VMD
 C         -58.469032     -161.941910      -56.414280
 N         -57.345821     -161.744446      -56.501549
 H         -59.378952     -164.779251      -55.328053
 H         -59.490322     -162.211197      -56.301884
 C         -60.248943     -164.167801      -54.950108
 C         -60.329403     -163.859467      -53.474941
 C         -61.625401     -164.462479      -55.624481
 C         -61.232708     -162.642593      -53.089100
 C         -62.740013     -163.421204      -55.091873
 C         -62.608608     -163.114380      -53.542019
 H         -59.360291     -163.697220      -52.975601
 H         -60.797222     -164.740997      -52.996155
 H         -61.526672     -164.260818      -56.678814
 H         -62.057377     -165.490341      -55.466511
 H         -60.883778     -161.744385      -53.712498
 H         -61.253418     -162.485596      -52.005791
 H         -63.768333     -163.917114      -55.179550
 H         -62.812634     -162.435913      -55.664646
 H         -63.481647     -162.492172      -53.216267
 H         -62.853741     -164.164581      -53.189857
