20
 generated by VMD
 C         -13.319217      -28.752558       -6.460228
 N         -13.160119      -28.797888       -7.561448
 H         -11.992661      -30.597368       -5.047526
 H         -10.501163      -29.830330       -4.541321
 C         -10.991298      -30.770452       -4.637551
 C         -10.085148      -31.506662       -5.638987
 C         -10.965059      -31.463840       -3.242567
 C          -8.721837      -31.854053       -5.141619
 C          -9.481977      -31.497665       -2.688567
 C          -8.547374      -32.196632       -3.679090
 H          -9.900069      -31.015146       -6.525414
 H         -10.736532      -32.396332       -5.866738
 H         -11.628488      -30.925632       -2.568642
 H         -11.309340      -32.467552       -3.341853
 H          -8.091439      -30.993410       -5.291074
 H          -8.245427      -32.590919       -5.742922
 H          -9.474845      -32.017784       -1.679397
 H          -9.119002      -30.489773       -2.562225
 H          -7.449431      -32.074669       -3.462451
 H          -8.715968      -33.263565       -3.617289
