20
 generated by VMD
 C          -1.658174       -8.535467        0.173341
 N          -2.402220       -7.748631        0.321412
 H          -3.467202       -9.374134        2.426642
 H          -2.021012      -10.400688        2.309977
 C          -3.049327      -10.269417        2.783328
 C          -3.846884      -11.418892        2.230964
 C          -2.986721      -10.245798        4.320473
 C          -3.518708      -12.756219        2.769252
 C          -2.618221      -11.636213        4.850578
 C          -3.567751      -12.779170        4.325977
 H          -3.667209      -11.381800        1.133716
 H          -4.885559      -11.213675        2.398588
 H          -2.183178       -9.631948        4.693644
 H          -3.990929      -10.005713        4.618278
 H          -2.491010      -13.107639        2.505746
 H          -4.207349      -13.568351        2.446176
 H          -2.742313      -11.601473        5.941731
 H          -1.615916      -11.927709        4.587659
 H          -3.140057      -13.759969        4.651096
 H          -4.622873      -12.699414        4.628964
