20
 generated by VMD
 C          -1.341175      -11.915569        1.532670
 N          -1.029709      -12.465355        0.576279
 H          -3.833414      -13.055266        0.746855
 H          -5.531549      -13.005943        0.668521
 C          -4.684005      -13.647060        1.020271
 C          -4.765781      -13.888391        2.477430
 C          -4.693953      -14.966322        0.183200
 C          -5.857174      -14.826018        2.955446
 C          -5.874195      -15.879415        0.602766
 C          -5.856179      -16.093945        2.134192
 H          -4.931968      -12.870378        2.863928
 H          -3.771482      -14.319406        2.687162
 H          -4.756172      -14.755815       -0.853845
 H          -3.747247      -15.402887        0.403388
 H          -6.839636      -14.304620        2.995130
 H          -5.492195      -15.063399        3.972662
 H          -5.771427      -16.866375        0.051771
 H          -6.841905      -15.434862        0.297027
 H          -6.694173      -16.708437        2.431945
 H          -4.980356      -16.659349        2.345451
