20
 generated by VMD
 C         -31.309750      -77.069099      -24.956158
 N         -32.101185      -77.059944      -25.841297
 H         -29.234030      -76.997177      -22.425755
 H         -30.616932      -77.080643      -24.135139
 C         -28.497206      -77.776314      -22.138155
 C         -27.492977      -78.040489      -23.178495
 C         -28.844603      -78.869324      -21.256462
 C         -26.184669      -78.644363      -22.574190
 C         -27.573269      -79.402466      -20.675680
 C         -26.567688      -79.794235      -21.727737
 H         -27.310896      -77.142700      -23.767431
 H         -27.873898      -78.597984      -24.023127
 H         -29.495834      -78.477493      -20.544456
 H         -29.434433      -79.664490      -21.737101
 H         -25.761711      -77.870132      -21.906162
 H         -25.489214      -78.951866      -23.352131
 H         -27.820562      -80.222885      -20.116575
 H         -27.097132      -78.669212      -20.091692
 H         -25.701040      -80.268539      -21.201340
 H         -27.183859      -80.484970      -22.360224
