20
 generated by VMD
 C         -60.723743     -153.990784      -51.314941
 N         -61.360180     -154.336807      -52.242607
 H         -57.552765     -153.688782      -52.630836
 H         -60.183281     -153.717758      -50.392975
 C         -56.763161     -153.474869      -51.909771
 C         -56.834084     -153.970367      -50.402843
 C         -55.685513     -152.508499      -52.307331
 C         -55.559750     -154.132324      -49.613361
 C         -54.437271     -152.812042      -51.584690
 C         -54.639793     -152.994873      -50.076366
 H         -57.454525     -154.867859      -50.508369
 H         -57.499157     -153.163803      -49.976604
 H         -55.402332     -152.698669      -53.366081
 H         -55.995129     -151.469803      -52.190018
 H         -55.212296     -155.124725      -49.822693
 H         -55.803532     -153.978729      -48.536568
 H         -53.605461     -152.193619      -51.666576
 H         -54.037617     -153.766068      -52.168293
 H         -53.658573     -153.428558      -49.662292
 H         -54.808006     -151.953552      -49.709694
