20
 generated by VMD
 C         -52.392429     -146.370270      -44.158226
 N         -51.707790     -146.532562      -45.118557
 H         -53.989231     -145.717361      -46.860298
 H         -53.126766     -146.344650      -43.401257
 C         -53.979393     -145.144333      -47.825733
 C         -52.845215     -144.926468      -48.872612
 C         -54.790466     -143.842667      -47.549606
 C         -53.434082     -144.332016      -50.151207
 C         -55.399391     -143.297684      -48.854950
 C         -54.252666     -143.004120      -49.816883
 H         -52.213100     -145.788315      -49.210281
 H         -52.153587     -144.112610      -48.447716
 H         -55.573265     -144.039490      -46.870235
 H         -54.052254     -143.178741      -47.231571
 H         -54.138237     -145.055008      -50.455002
 H         -52.640537     -144.029419      -50.849136
 H         -55.886337     -142.297562      -48.720211
 H         -56.104012     -143.993835      -49.213085
 H         -54.539494     -142.608383      -50.860458
 H         -53.576294     -142.210632      -49.448898
