20
 generated by VMD
 C         -44.414371     -122.058228      -35.985462
 N         -43.916199     -121.046593      -35.936138
 H         -45.017342     -122.670647      -39.673336
 H         -44.773407     -123.104431      -36.012337
 C         -44.834484     -121.624649      -39.329079
 C         -43.401009     -121.140869      -39.577789
 C         -45.982464     -120.618675      -39.105480
 C         -43.273907     -119.695580      -40.156513
 C         -45.743675     -119.343460      -39.882851
 C         -44.322258     -118.809692      -39.495419
 H         -42.876671     -121.794327      -40.160511
 H         -42.928204     -121.253235      -38.609818
 H         -46.946430     -120.837242      -39.576420
 H         -46.187950     -120.574081      -37.980289
 H         -43.357292     -119.512123      -41.231449
 H         -42.291290     -119.228004      -39.911461
 H         -46.397385     -118.415131      -39.539368
 H         -45.882713     -119.328018      -40.983574
 H         -44.186306     -117.752090      -39.889706
 H         -44.279346     -118.785492      -38.376789
