20
 generated by VMD
 C         -79.580177     -205.388321      -71.035202
 N         -80.269981     -206.268433      -71.442200
 H         -77.327065     -203.042282      -70.278717
 H         -78.943787     -204.457916      -70.786102
 C         -76.262978     -203.343506      -70.221344
 C         -75.253967     -202.246078      -70.480606
 C         -75.861641     -204.730179      -70.019768
 C         -73.801254     -202.696060      -70.499222
 C         -74.670578     -204.897766      -69.142159
 C         -73.516769     -203.930710      -69.614998
 H         -75.431488     -201.533554      -69.634460
 H         -75.429649     -201.792694      -71.432053
 H         -76.684578     -205.217148      -69.533791
 H         -75.703941     -205.162628      -71.015152
 H         -73.144905     -201.789200      -70.248940
 H         -73.448456     -202.924332      -71.583313
 H         -74.435768     -206.034348      -69.093285
 H         -74.916985     -204.569351      -68.155891
 H         -72.853523     -203.763916      -68.633987
 H         -72.898987     -204.626831      -70.290024
