20
 generated by VMD
 C         -30.773869      -78.404900      -25.283274
 N         -31.253782      -77.424301      -25.034966
 H         -29.245590      -77.066864      -22.702499
 H         -30.283253      -79.168976      -25.856634
 C         -28.736879      -78.047600      -22.530684
 C         -27.499849      -78.242874      -23.301071
 C         -29.515804      -79.159042      -22.080954
 C         -26.542608      -79.114838      -22.404095
 C         -28.644192      -80.184113      -21.339949
 C         -27.260386      -80.494431      -21.973789
 H         -27.045200      -77.223892      -23.618326
 H         -27.749825      -78.635773      -24.349920
 H         -30.357504      -78.990761      -21.487183
 H         -29.917482      -79.740646      -22.957403
 H         -26.260031      -78.408768      -21.610788
 H         -25.643293      -79.518188      -22.956194
 H         -29.075686      -81.208122      -21.273340
 H         -28.398088      -79.811783      -20.248707
 H         -26.678257      -81.043648      -21.199785
 H         -27.321486      -81.142036      -22.914858
