20
 generated by VMD
 C         -50.587406     -145.059433      -45.020908
 N         -50.682117     -145.805038      -44.162975
 H         -53.700012     -144.416977      -46.587891
 H         -50.314125     -144.376892      -45.835369
 C         -53.564213     -143.417740      -47.036919
 C         -52.626965     -143.356598      -48.218597
 C         -54.676105     -142.509766      -47.044884
 C         -53.326000     -143.459076      -49.494762
 C         -55.469471     -142.589783      -48.363018
 C         -54.487209     -142.437149      -49.667820
 H         -51.870018     -144.160141      -48.119545
 H         -52.264877     -142.369858      -48.161060
 H         -55.385212     -142.815918      -46.242325
 H         -54.361893     -141.439209      -46.622570
 H         -53.675549     -144.428558      -49.658199
 H         -52.559750     -143.377747      -50.285400
 H         -56.197807     -141.792130      -48.395756
 H         -55.842876     -143.593353      -48.238155
 H         -54.979507     -142.724091      -50.586639
 H         -54.195042     -141.390289      -49.565422
