20
 generated by VMD
 C          -8.562785      -23.560280        2.317762
 N          -7.929068      -24.069811        3.087760
 H          -8.901217      -23.531498       -1.537313
 H          -9.292178      -22.535505       -3.031981
 C          -8.521948      -22.941618       -2.386545
 C          -7.695035      -23.899529       -3.253100
 C          -7.518877      -21.836332       -1.915864
 C          -7.125196      -23.178812       -4.399996
 C          -6.944168      -21.041094       -3.102726
 C          -6.225596      -21.972704       -4.092332
 H          -8.512436      -24.619671       -3.654486
 H          -6.925947      -24.432142       -2.690356
 H          -7.997962      -21.064137       -1.255588
 H          -6.753048      -22.233553       -1.241956
 H          -7.845288      -22.855587       -5.123085
 H          -6.526934      -23.849474       -4.965461
 H          -6.204249      -20.328711       -2.696557
 H          -7.676294      -20.373327       -3.569471
 H          -5.981788      -21.413397       -5.046909
 H          -5.212862      -22.323908       -3.750102
