20
 generated by VMD
 C         -80.198204     -206.828049      -74.030159
 N         -80.585342     -206.896332      -75.126602
 H         -76.831589     -207.316986      -73.131897
 H         -80.074425     -206.828812      -72.911446
 C         -76.568626     -207.559219      -72.035599
 C         -75.375656     -207.044373      -71.383141
 C         -77.256317     -208.746872      -71.331169
 C         -75.466492     -206.872253      -69.884216
 C         -77.525581     -208.239105      -69.877716
 C         -76.189758     -207.971390      -69.125359
 H         -75.323074     -206.026001      -71.830147
 H         -74.411713     -207.511139      -71.480988
 H         -78.209473     -208.925903      -71.837555
 H         -76.560326     -209.643387      -71.390800
 H         -76.033318     -205.987320      -69.728622
 H         -74.551247     -206.708664      -69.317795
 H         -78.227837     -208.906250      -69.292084
 H         -78.076637     -207.311600      -70.106697
 H         -76.454430     -207.658508      -68.081810
 H         -75.503654     -208.817368      -69.174019
