20
 generated by VMD
 C         -69.542320     -180.953857      -62.205994
 N         -70.253761     -180.028976      -62.366539
 H         -66.873199     -181.553329      -60.566639
 H         -68.807693     -181.758026      -62.047123
 C         -66.416008     -180.521042      -60.597961
 C         -64.937798     -180.509430      -60.399082
 C         -67.245483     -179.433426      -60.146206
 C         -64.440491     -179.178329      -61.115143
 C         -66.705833     -178.127991      -60.754765
 C         -65.174683     -177.871796      -60.587776
 H         -64.448494     -181.373398      -60.879951
 H         -64.693291     -180.548691      -59.326481
 H         -68.244965     -179.773575      -60.286758
 H         -67.115631     -179.393631      -58.996853
 H         -64.669090     -179.353851      -62.142544
 H         -63.386227     -179.045242      -60.902168
 H         -67.151558     -177.338165      -60.150291
 H         -67.011612     -178.036758      -61.780754
 H         -64.650803     -177.081131      -61.290092
 H         -64.905922     -177.718506      -59.499191
