20
 generated by VMD
 C         -60.165241     -157.404205      -55.998623
 N         -59.916924     -157.908386      -56.976894
 H         -60.042458     -157.344315      -52.619789
 H         -60.291130     -157.044403      -55.007000
 C         -59.229691     -158.040390      -52.818024
 C         -57.954620     -157.650833      -52.214401
 C         -59.496292     -159.532578      -53.085865
 C         -57.632938     -158.511719      -50.997036
 C         -59.265079     -160.441208      -51.882511
 C         -57.831371     -160.065109      -51.334564
 H         -57.858749     -156.639221      -51.951126
 H         -57.176311     -157.744614      -52.945206
 H         -60.547863     -159.583481      -53.276825
 H         -58.857647     -159.712708      -54.005726
 H         -58.300156     -158.273163      -50.180996
 H         -56.687096     -158.239456      -50.606094
 H         -59.346573     -161.444595      -52.225769
 H         -60.059048     -160.371231      -51.165871
 H         -57.614040     -160.702560      -50.502464
 H         -57.097977     -160.424835      -52.008648
