20
 generated by VMD
 C         -38.002254     -107.979027      -37.036972
 N         -38.547253     -108.173882      -38.032097
 H         -41.317924     -108.624138      -35.365738
 H         -37.690186     -107.688858      -36.048687
 C         -41.158215     -109.582558      -34.762215
 C         -40.227436     -110.665070      -34.979603
 C         -42.417309     -109.732750      -33.937210
 C         -40.038982     -111.429420      -33.667534
 C         -42.227177     -110.620842      -32.684925
 C         -41.419937     -111.963341      -33.095627
 H         -39.375195     -110.276672      -35.468651
 H         -40.764191     -111.211906      -35.746765
 H         -42.839314     -108.702225      -33.669319
 H         -43.205505     -110.165344      -34.587532
 H         -39.465298     -110.996323      -32.896843
 H         -39.480412     -112.387146      -33.840427
 H         -43.205589     -110.919868      -32.262478
 H         -41.625587     -110.143318      -31.832151
 H         -41.215351     -112.532463      -32.099442
 H         -41.943066     -112.499184      -33.860611
