20
 generated by VMD
 C         -48.510406     -135.798019      -46.209007
 N         -47.719307     -136.151993      -45.433144
 H         -51.504978     -135.064804      -46.110992
 H         -49.346249     -135.448410      -46.779537
 C         -51.643242     -135.854752      -45.376152
 C         -52.503376     -137.166702      -45.627445
 C         -51.219784     -135.748611      -43.977398
 C         -51.616528     -138.343674      -45.168163
 C         -50.535610     -136.965851      -43.444111
 C         -51.271011     -138.326721      -43.691448
 H         -52.798592     -137.229324      -46.635483
 H         -53.409637     -137.305923      -44.948299
 H         -50.561939     -134.840836      -43.934769
 H         -52.112583     -135.475082      -43.403500
 H         -50.794544     -138.424866      -45.857380
 H         -52.081875     -139.323334      -45.278111
 H         -50.175350     -136.790390      -42.492966
 H         -49.619759     -137.155167      -44.073185
 H         -50.622162     -139.241028      -43.495781
 H         -52.208084     -138.262787      -43.267220
