20
 generated by VMD
 C         -23.443159      -53.300102      -14.094151
 N         -24.145597      -53.175079      -14.999173
 H         -20.358862      -55.318172      -15.201234
 H         -22.442669      -53.205132      -13.322200
 C         -19.544363      -55.440445      -14.590875
 C         -19.203707      -54.175549      -13.794531
 C         -18.538759      -56.463711      -14.789188
 C         -18.223276      -54.485619      -12.598363
 C         -17.646421      -56.702904      -13.585674
 C         -17.067190      -55.411930      -13.027205
 H         -20.088072      -53.659401      -13.314339
 H         -18.592539      -53.481644      -14.467587
 H         -19.137537      -57.317551      -15.038381
 H         -17.941662      -56.197239      -15.748244
 H         -18.786741      -54.961250      -11.780162
 H         -17.816416      -53.538593      -12.184120
 H         -16.844309      -57.380299      -13.815287
 H         -18.212885      -57.140266      -12.736805
 H         -16.407562      -55.622692      -12.200691
 H         -16.326954      -54.913769      -13.688495
