20
 generated by VMD
 C          -8.973280      -23.679468        2.684030
 N          -8.304946      -24.566799        2.837077
 H          -8.401667      -23.482834       -1.219485
 H          -9.288685      -22.588438       -2.614751
 C          -8.298746      -23.027506       -2.224311
 C          -7.694958      -24.057623       -3.195600
 C          -7.362529      -21.798424       -2.052106
 C          -7.242526      -23.347435       -4.527483
 C          -6.900515      -21.161919       -3.415650
 C          -6.300487      -22.217606       -4.322824
 H          -8.450256      -24.815863       -3.323825
 H          -6.782311      -24.617373       -2.838912
 H          -7.800080      -20.996199       -1.501925
 H          -6.499951      -22.160093       -1.470320
 H          -8.154785      -23.063482       -5.118929
 H          -6.849247      -24.147066       -5.236828
 H          -6.131521      -20.411953       -3.261078
 H          -7.738940      -20.613134       -3.857029
 H          -6.095445      -21.798906       -5.273259
 H          -5.385644      -22.523731       -3.831635
