20
 generated by VMD
 C         -58.106022     -165.326599      -56.307129
 N         -57.514275     -166.297714      -56.560223
 H         -60.605007     -164.855118      -54.143005
 H         -58.605804     -164.385391      -56.102161
 C         -61.451962     -165.076996      -54.742271
 C         -61.794559     -166.424362      -55.015320
 C         -62.008537     -164.068878      -55.654118
 C         -63.277809     -166.769333      -55.254169
 C         -63.541172     -164.256104      -55.730423
 C         -63.940350     -165.705368      -56.169033
 H         -61.241890     -167.215118      -54.391003
 H         -61.297115     -166.713867      -55.987602
 H         -61.715736     -163.049042      -55.312244
 H         -61.479759     -164.318939      -56.615040
 H         -63.889912     -166.703888      -54.335346
 H         -63.458141     -167.779160      -55.759529
 H         -63.837387     -163.462814      -56.445633
 H         -63.901779     -163.878815      -54.842896
 H         -65.067200     -165.687592      -56.125210
 H         -63.580853     -165.830856      -57.264553
