20
 generated by VMD
 C         -63.969749     -175.052231      -55.934692
 N         -63.071648     -175.372375      -56.556023
 H         -65.974113     -173.748871      -58.568302
 H         -64.777985     -174.697662      -55.294849
 C         -65.350189     -172.837204      -58.875988
 C         -65.597450     -171.496338      -58.227821
 C         -64.458473     -173.068695      -60.047421
 C         -64.428078     -170.546356      -58.228619
 C         -63.195465     -172.359253      -59.714977
 C         -63.515976     -170.793411      -59.500046
 H         -65.963921     -171.624954      -57.191608
 H         -66.467476     -171.209106      -58.807945
 H         -64.349724     -174.170074      -60.187794
 H         -64.915100     -172.880310      -61.001652
 H         -63.783936     -170.749634      -57.435993
 H         -64.694450     -169.529205      -58.170944
 H         -62.533283     -172.425186      -60.604427
 H         -62.746849     -172.772430      -58.757759
 H         -62.564850     -170.316559      -59.409649
 H         -64.075966     -170.428848      -60.373657
