20
 generated by VMD
 C          -1.012749      -10.545895        1.055022
 N          -1.667866       -9.714990        0.794941
 H          -3.425786      -12.381235        0.780002
 H          -4.361842      -12.074503        2.267347
 C          -4.053743      -12.892047        1.560114
 C          -3.210566      -13.899247        2.369288
 C          -5.287369      -13.512997        0.958535
 C          -4.090086      -14.840660        3.315611
 C          -6.152112      -14.233511        1.958199
 C          -5.353163      -15.305562        2.605261
 H          -2.362033      -13.450634        2.928854
 H          -2.773896      -14.623355        1.631410
 H          -5.889505      -12.734773        0.572614
 H          -4.982139      -14.226181        0.206789
 H          -4.293407      -14.229734        4.236760
 H          -3.495251      -15.671988        3.689862
 H          -7.017645      -14.671910        1.418652
 H          -6.603625      -13.580486        2.750650
 H          -5.933125      -15.978118        3.250421
 H          -5.045570      -15.969074        1.813448
