20
 generated by VMD
 C         -77.975571     -203.320648      -69.595695
 N         -78.535812     -204.213501      -69.151649
 H         -75.670380     -202.335068      -67.939476
 H         -77.432343     -202.366577      -69.812798
 C         -74.920395     -201.693237      -68.292923
 C         -74.903259     -200.146210      -68.554581
 C         -73.768738     -202.488647      -68.823486
 C         -74.833321     -199.888214      -70.129158
 C         -72.990555     -201.705307      -69.744827
 C         -73.987595     -201.021622      -70.780739
 H         -73.927475     -199.737366      -68.137894
 H         -75.733841     -199.685059      -68.014671
 H         -73.149612     -202.847519      -67.956383
 H         -74.168747     -203.391479      -69.386284
 H         -74.353477     -198.901215      -70.344398
 H         -75.844589     -199.732971      -70.473534
 H         -72.316704     -202.275330      -70.375214
 H         -72.264778     -201.087128      -69.194031
 H         -73.376732     -200.478470      -71.556587
 H         -74.705704     -201.685471      -71.367706
