20
 generated by VMD
 C         -51.382702     -145.594940      -44.038429
 N         -51.314823     -146.444595      -44.855007
 H         -53.483013     -144.833679      -46.528893
 H         -51.389977     -144.866272      -43.204613
 C         -53.709690     -144.314392      -47.452362
 C         -52.778252     -144.226608      -48.638298
 C         -54.815281     -143.334961      -47.354435
 C         -53.455276     -143.897797      -50.015060
 C         -55.409660     -142.904770      -48.675701
 C         -54.399284     -142.711639      -49.819981
 H         -52.120514     -145.211609      -48.813099
 H         -51.991638     -143.406952      -48.375221
 H         -55.598412     -143.898926      -46.861622
 H         -54.491348     -142.409973      -46.918213
 H         -53.934059     -144.774048      -50.356567
 H         -52.658741     -143.662613      -50.637489
 H         -55.843609     -141.861710      -48.476295
 H         -56.158337     -143.688751      -48.897564
 H         -54.944195     -142.349319      -50.730049
 H         -53.760269     -141.720718      -49.459396
