20
 generated by VMD
 C         -31.731840      -76.441925      -24.612696
 N         -31.795666      -76.887100      -25.716228
 H         -29.528238      -77.355766      -22.615387
 H         -32.130093      -76.139503      -23.715744
 C         -28.574345      -77.693420      -22.244108
 C         -27.528669      -78.071030      -23.237839
 C         -28.602921      -78.622643      -20.955275
 C         -26.118229      -78.308144      -22.722620
 C         -27.239511      -78.977287      -20.478584
 C         -26.120630      -79.248924      -21.523689
 H         -27.410168      -77.240646      -24.010061
 H         -27.895479      -79.025581      -23.715248
 H         -29.086941      -78.126724      -20.091457
 H         -29.121727      -79.621727      -21.262421
 H         -25.488298      -77.384033      -22.599768
 H         -25.569139      -78.781311      -23.594723
 H         -27.259336      -79.970070      -19.851793
 H         -26.921461      -78.168869      -19.661007
 H         -25.203257      -79.223221      -21.000105
 H         -26.121231      -80.308609      -21.884245
