20
 generated by VMD
 C          -9.692055      -24.861189        0.589941
 N         -10.581656      -25.332363        0.106742
 H          -6.133170      -23.896671       -0.857863
 H          -7.870412      -23.581631       -1.066385
 C          -6.940534      -23.780216       -1.587168
 C          -7.242059      -25.054466       -2.481571
 C          -6.593183      -22.529226       -2.429824
 C          -8.170566      -24.778948       -3.735315
 C          -7.519209      -22.385115       -3.611296
 C          -7.597094      -23.622490       -4.505853
 H          -7.519103      -25.905334       -1.881682
 H          -6.266500      -25.357079       -2.999534
 H          -6.592554      -21.610142       -1.836867
 H          -5.530169      -22.663565       -2.724768
 H          -9.131244      -24.495949       -3.390270
 H          -8.318287      -25.665514       -4.318733
 H          -7.247365      -21.488855       -4.195540
 H          -8.531469      -22.195171       -3.227345
 H          -8.179587      -23.356543       -5.397329
 H          -6.616012      -23.931675       -4.937177
