20
 generated by VMD
 C         -22.966143      -52.993187      -12.594506
 N         -22.792938      -52.586670      -13.621572
 H         -20.431492      -54.492313      -14.095151
 H         -23.154261      -53.725739      -11.616940
 C         -19.405607      -54.288960      -13.933692
 C         -18.904425      -52.897758      -14.133774
 C         -18.503086      -55.520824      -13.595891
 C         -17.664303      -52.611019      -13.248496
 C         -17.156767      -55.018990      -13.030296
 C         -16.727650      -53.696045      -13.621468
 H         -19.700829      -52.187225      -13.993721
 H         -18.619671      -52.789017      -15.188971
 H         -18.989553      -56.232265      -12.900482
 H         -18.471067      -56.072090      -14.490633
 H         -17.882530      -52.613873      -12.190216
 H         -17.258850      -51.622929      -13.498383
 H         -16.326038      -55.773300      -13.169456
 H         -17.296099      -54.917454      -11.988091
 H         -15.701632      -53.350178      -13.298391
 H         -16.629749      -53.778950      -14.760565
