20
 generated by VMD
 C         -49.748966     -127.374641      -39.791306
 N         -48.944000     -126.691025      -39.332294
 H         -46.975792     -126.610641      -41.796627
 H         -50.401436     -128.100967      -40.288086
 C         -46.407505     -125.949173      -41.231777
 C         -45.269745     -126.338959      -40.422028
 C         -46.713627     -124.502029      -41.228912
 C         -44.016907     -125.523354      -40.646461
 C         -45.543762     -123.574562      -41.474400
 C         -44.426453     -123.999588      -40.488441
 H         -45.132431     -127.398491      -40.618111
 H         -45.468445     -126.346191      -39.330128
 H         -47.601326     -124.463661      -41.861683
 H         -47.192055     -124.132446      -40.221710
 H         -43.420357     -125.643547      -41.582787
 H         -43.323280     -125.680550      -39.781094
 H         -45.820023     -122.536186      -41.248718
 H         -45.267319     -123.526733      -42.589787
 H         -43.557667     -123.367439      -40.512348
 H         -44.865158     -123.897568      -39.486763
