20
 generated by VMD
 C         -55.262604     -148.687180      -45.241646
 N         -54.647125     -148.950439      -44.267536
 H         -54.336143     -148.165909      -48.721210
 H         -55.928459     -148.366043      -46.056164
 C         -54.343269     -147.129547      -49.157475
 C         -53.134403     -146.960449      -50.104622
 C         -55.053562     -145.974823      -48.576195
 C         -53.394176     -145.808380      -50.915833
 C         -55.128841     -144.835999      -49.581482
 C         -53.815655     -144.577911      -50.281364
 H         -53.109341     -147.828842      -50.829247
 H         -52.257797     -146.941391      -49.519787
 H         -56.051971     -146.398376      -48.220230
 H         -54.488518     -145.696762      -47.671074
 H         -54.075771     -146.138733      -51.669689
 H         -52.497719     -145.741013      -51.562569
 H         -55.289627     -143.958725      -49.078716
 H         -55.932991     -144.898209      -50.407280
 H         -54.046391     -143.839478      -51.009308
 H         -53.029087     -144.126724      -49.687656
