20
 generated by VMD
 C         -28.484789      -86.468109      -26.576714
 N         -27.623556      -87.284782      -26.686014
 H         -30.949654      -87.366005      -25.380413
 H         -29.357653      -85.823555      -26.409815
 C         -31.954855      -87.678772      -25.632338
 C         -33.116425      -88.059746      -24.632261
 C         -32.151096      -87.839462      -27.118073
 C         -34.455547      -87.527298      -25.152090
 C         -33.528461      -87.456291      -27.543423
 C         -34.570759      -88.050522      -26.683262
 H         -32.949478      -87.838631      -23.528193
 H         -32.937309      -89.188507      -24.612625
 H         -31.340014      -87.370361      -27.640797
 H         -31.938757      -88.918953      -27.198200
 H         -34.394054      -86.460289      -25.189892
 H         -35.278748      -87.934227      -24.622215
 H         -33.843418      -87.952065      -28.490444
 H         -33.688915      -86.367645      -27.575073
 H         -35.639572      -87.798676      -26.980597
 H         -34.544891      -89.263313      -26.683123
