20
 generated by VMD
 C         -29.779669      -79.467491      -26.335596
 N         -30.570436      -78.747711      -25.864845
 H         -28.341166      -83.123177      -25.654488
 H         -29.228348      -80.091980      -27.108404
 C         -28.926359      -83.059891      -24.708406
 C         -28.589958      -82.023491      -23.649431
 C         -30.009523      -84.142014      -24.238825
 C         -29.789906      -81.543068      -22.911003
 C         -31.017656      -83.548027      -23.247528
 C         -30.474514      -82.685753      -22.230909
 H         -27.975821      -81.254044      -24.079105
 H         -27.902884      -82.517586      -22.915295
 H         -30.446863      -84.586533      -25.081396
 H         -29.584356      -84.981232      -23.640501
 H         -30.324293      -80.980980      -23.740101
 H         -29.428280      -80.864746      -22.045507
 H         -31.457012      -84.368851      -22.781075
 H         -31.817801      -82.973595      -23.815937
 H         -31.298336      -82.428429      -21.585075
 H         -29.771111      -83.229431      -21.561241
