20
 generated by VMD
 C         -20.728281      -52.250866       -9.649109
 N         -21.263407      -52.087181      -10.636359
 H         -19.100826      -49.936508      -11.422627
 H         -20.521637      -52.728317       -8.455256
 C         -18.118113      -49.955093      -11.849755
 C         -17.515192      -51.203159      -12.262985
 C         -17.394321      -48.675014      -12.302378
 C         -16.943611      -51.113277      -13.681667
 C         -16.555294      -48.693008      -13.655433
 C         -15.858976      -50.057117      -13.897062
 H         -18.175703      -52.057240      -12.062987
 H         -16.636818      -51.408649      -11.571567
 H         -18.155535      -47.892616      -12.380569
 H         -16.687374      -48.444786      -11.464849
 H         -17.721006      -50.921761      -14.421234
 H         -16.441774      -52.017593      -13.934607
 H         -15.678519      -48.036469      -13.438066
 H         -17.131969      -48.269836      -14.525908
 H         -15.435084      -50.098595      -14.866062
 H         -15.085033      -50.164646      -13.164786
