20
 generated by VMD
 C         -38.669876     -108.225784      -36.784275
 N         -37.850899     -108.854851      -37.326180
 H         -41.606556     -109.353043      -36.205154
 H         -39.550785     -107.741249      -36.446335
 C         -41.485859     -109.923492      -35.356331
 C         -40.634029     -111.284523      -35.422058
 C         -42.420921     -109.850487      -34.043301
 C         -40.301014     -111.927177      -34.077698
 C         -42.099754     -110.781082      -32.877533
 C         -41.607037     -112.084679      -33.327301
 H         -39.729862     -111.069550      -35.978828
 H         -41.239773     -111.989220      -36.032253
 H         -42.261246     -108.837624      -33.657120
 H         -43.490200     -109.997017      -34.398540
 H         -39.620247     -111.426537      -33.438240
 H         -39.865456     -112.889099      -34.395184
 H         -42.960136     -111.014603      -32.223183
 H         -41.326160     -110.260132      -32.161266
 H         -41.619480     -112.807465      -32.499714
 H         -42.390221     -112.415939      -33.928230
