20
 generated by VMD
 C         -15.235848      -47.104153       -6.292274
 N         -15.260921      -46.983513       -5.177804
 H         -16.154362      -46.416332       -9.630949
 H         -14.930543      -46.223488      -10.842058
 C         -16.022602      -46.153263      -10.712945
 C         -16.441355      -44.724487      -11.048657
 C         -16.852251      -47.029930      -11.603861
 C         -16.352915      -44.197132      -12.467536
 C         -16.835039      -46.519001      -13.091801
 C         -17.248959      -45.082458      -13.325145
 H         -15.943255      -44.052349      -10.346260
 H         -17.509840      -44.565880      -10.785506
 H         -16.396055      -48.053192      -11.592977
 H         -17.872896      -47.186081      -11.287921
 H         -15.348331      -44.260525      -12.920467
 H         -16.587358      -43.119907      -12.484155
 H         -17.495878      -47.246426      -13.722823
 H         -15.808967      -46.675362      -13.373775
 H         -17.028177      -44.901936      -14.410507
 H         -18.306871      -44.926979      -13.055932
