20
 generated by VMD
 C         -39.492409     -105.564301      -37.087196
 N         -40.583206     -105.922203      -37.249607
 H         -39.116127     -107.956116      -35.263741
 H         -38.429234     -105.246628      -37.085026
 C         -39.405949     -108.583275      -34.382816
 C         -38.382835     -108.798950      -33.229248
 C         -40.640640     -109.251671      -34.330940
 C         -39.054958     -108.989128      -31.869326
 C         -41.236576     -109.384453      -32.900692
 C         -40.218662     -109.892654      -31.977949
 H         -37.583885     -107.918457      -33.159382
 H         -37.854538     -109.780319      -33.431980
 H         -41.336475     -108.694313      -34.952610
 H         -40.666111     -110.282349      -34.657009
 H         -39.360897     -108.023453      -31.523237
 H         -38.269615     -109.345779      -31.151245
 H         -42.164013     -109.987770      -32.841331
 H         -41.638481     -108.428055      -32.614727
 H         -40.602554     -109.996727      -30.842392
 H         -39.830837     -110.827675      -32.254417
