20
 generated by VMD
 C         -11.781277      -41.574749       -6.224260
 N         -10.860692      -41.940472       -6.704640
 H         -14.727093      -41.578003       -8.398696
 H         -15.598982      -40.803986       -9.886141
 C         -15.326300      -41.769421       -9.285153
 C         -16.662010      -42.300632       -8.760605
 C         -14.662017      -42.834934      -10.146217
 C         -17.573475      -42.456646       -9.947985
 C         -15.526734      -43.163067      -11.366696
 C         -16.948507      -43.493008      -10.897405
 H         -17.107954      -41.609646       -7.984029
 H         -16.483225      -43.211540       -8.163872
 H         -13.712444      -42.445339      -10.514024
 H         -14.447726      -43.716793       -9.554117
 H         -17.718256      -41.471176      -10.410339
 H         -18.533854      -42.894337       -9.688048
 H         -15.072610      -44.037228      -11.946466
 H         -15.595798      -42.323631      -12.002046
 H         -17.603661      -43.481171      -11.781382
 H         -16.958296      -44.484875      -10.477708
