20
 generated by VMD
 C         -22.358906      -68.312531      -16.635462
 N         -22.168819      -68.604340      -15.533605
 H         -24.179342      -66.109184      -18.171539
 H         -22.802279      -68.169777      -17.642975
 C         -24.678122      -66.430237      -19.088118
 C         -23.923109      -67.139870      -20.212711
 C         -26.106659      -66.734344      -18.963882
 C         -24.508516      -68.652092      -20.214125
 C         -26.649231      -68.092087      -19.242413
 C         -26.007366      -68.780922      -20.368412
 H         -22.849392      -67.086510      -20.108259
 H         -24.190105      -66.662987      -21.289785
 H         -26.479116      -66.330696      -18.061470
 H         -26.653677      -66.138664      -19.622284
 H         -24.221760      -69.169907      -19.327982
 H         -24.059803      -69.024246      -21.131012
 H         -27.691843      -68.013451      -19.482700
 H         -26.498642      -68.651894      -18.313780
 H         -26.337343      -69.808891      -20.528811
 H         -26.252777      -68.299324      -21.343250
