20
 generated by VMD
 C         -29.059677      -81.394341      -27.652418
 N         -29.807684      -80.527740      -27.549791
 H         -29.104069      -82.192207      -23.901632
 H         -28.345613      -82.230797      -28.019526
 C         -29.481207      -83.216698      -23.795063
 C         -29.799242      -83.791229      -22.367601
 C         -30.047626      -83.844833      -25.075342
 C         -31.303528      -83.918869      -22.294472
 C         -31.454323      -84.120407      -24.834698
 C         -31.959877      -84.649704      -23.464306
 H         -29.434282      -83.090691      -21.621548
 H         -29.273174      -84.811127      -22.324764
 H         -29.999218      -83.293427      -25.970139
 H         -29.489695      -84.777184      -25.193146
 H         -31.643923      -82.930046      -22.225609
 H         -31.323385      -84.544930      -21.348946
 H         -31.935062      -84.876564      -25.534010
 H         -32.074322      -83.256920      -24.947186
 H         -32.992794      -84.524307      -23.334879
 H         -31.840618      -85.759804      -23.475975
