20
 generated by VMD
 C         -56.164848     -150.161346      -47.171333
 N         -57.105900     -150.272720      -46.534439
 H         -53.300114     -147.923233      -47.521458
 H         -55.240623     -150.228516      -47.768471
 C         -53.788483     -147.588547      -48.473179
 C         -53.190842     -148.123886      -49.651279
 C         -54.521301     -146.370499      -48.643406
 C         -54.076775     -148.070892      -50.865974
 C         -55.384850     -146.290970      -49.807323
 C         -54.634388     -146.659592      -51.078239
 H         -52.833046     -149.061523      -49.519119
 H         -52.302078     -147.533539      -50.003860
 H         -55.114925     -146.430038      -47.755299
 H         -53.793594     -145.473068      -48.454399
 H         -54.902142     -148.797211      -50.695724
 H         -53.620079     -148.332291      -51.803230
 H         -55.935745     -145.351334      -49.882500
 H         -56.287247     -146.973724      -49.527103
 H         -55.258850     -146.589615      -51.942120
 H         -53.897221     -145.859253      -51.197548
