20
 generated by VMD
 C         -72.742195     -198.652817      -65.689522
 N         -73.721710     -198.978043      -66.212288
 H         -70.906281     -195.998215      -67.660728
 H         -71.848145     -198.455521      -65.067261
 C         -71.970840     -196.261353      -67.763039
 C         -72.943283     -195.362488      -66.907440
 C         -72.467369     -196.926147      -69.031914
 C         -74.309853     -195.239883      -67.591751
 C         -73.872322     -197.387939      -69.067810
 C         -74.837242     -196.624634      -68.082253
 H         -72.647484     -194.344559      -66.762871
 H         -72.983772     -195.814713      -65.903526
 H         -72.162415     -196.395538      -69.914360
 H         -71.781006     -197.764038      -69.243256
 H         -74.208435     -194.492096      -68.424904
 H         -74.878204     -194.836075      -66.791008
 H         -73.875954     -198.433289      -68.772591
 H         -74.327454     -197.283920      -70.095543
 H         -75.730133     -196.345947      -68.762527
 H         -75.089859     -197.268051      -67.270874
