20
 generated by VMD
 C         -28.205326      -84.656487      -26.105051
 N         -28.258642      -84.124222      -27.165571
 H         -31.371836      -84.293213      -26.190855
 H         -28.173075      -85.100975      -25.164274
 C         -31.512106      -85.371834      -25.878225
 C         -31.562716      -85.808800      -24.281590
 C         -31.884178      -86.644600      -26.759733
 C         -32.987720      -86.237473      -23.941521
 C         -33.245174      -87.186684      -26.339428
 C         -33.410229      -87.383659      -24.808157
 H         -31.371347      -84.810356      -23.712225
 H         -30.757513      -86.540512      -24.199226
 H         -31.995010      -86.359406      -27.780340
 H         -31.143396      -87.504921      -26.799988
 H         -33.606949      -85.340187      -24.098856
 H         -33.088898      -86.385384      -22.882002
 H         -33.556690      -88.133614      -26.715141
 H         -34.104706      -86.514526      -26.633469
 H         -34.498676      -87.696594      -24.785145
 H         -32.853893      -88.245361      -24.489378
