20
 generated by VMD
 C         -67.220207     -189.745605      -67.069046
 N         -66.913277     -190.112427      -65.981247
 H         -70.433662     -190.744644      -66.108734
 H         -67.290092     -189.242661      -68.053543
 C         -71.183060     -190.338028      -65.385262
 C         -72.149010     -191.117844      -64.701866
 C         -70.529839     -189.238251      -64.698250
 C         -73.133446     -190.105911      -64.233337
 C         -71.397682     -188.407654      -63.781319
 C         -72.604233     -189.196106      -63.166573
 H         -71.830551     -191.714737      -63.899197
 H         -72.511650     -191.918594      -65.388100
 H         -69.699707     -189.574310      -64.079407
 H         -69.937775     -188.474274      -65.376282
 H         -74.033600     -190.591888      -63.905235
 H         -73.519142     -189.495590      -65.029655
 H         -71.783516     -187.520477      -64.351791
 H         -70.889404     -187.894104      -62.924351
 H         -72.372093     -189.838776      -62.330627
 H         -73.395485     -188.319061      -62.896633
