20
 generated by VMD
 C         -11.025342      -39.537594       -7.051156
 N         -11.033633      -39.994068       -6.043518
 H         -13.412239      -40.839428       -9.075930
 H         -14.768155      -39.910847       -9.128106
 C         -14.418812      -40.923981       -9.258380
 C         -15.106477      -41.713291       -8.101022
 C         -14.695110      -41.464481      -10.664742
 C         -16.561029      -41.912670       -8.329747
 C         -16.128698      -41.845249      -10.835459
 C         -16.770304      -42.603088       -9.667761
 H         -15.044974      -41.093948       -7.249243
 H         -14.509070      -42.599812       -7.933846
 H         -14.489817      -40.686115      -11.372266
 H         -14.007421      -42.362617      -10.804309
 H         -17.024965      -40.916382       -8.310339
 H         -16.938892      -42.547764       -7.553725
 H         -16.306210      -42.444847      -11.806460
 H         -16.727463      -40.999542      -10.967952
 H         -17.820328      -42.692184       -9.893435
 H         -16.371092      -43.616608       -9.640590
