20
 generated by VMD
 C         -23.346600      -53.270035      -13.178586
 N         -23.281574      -52.636002      -14.185637
 H         -20.654949      -54.911831      -14.363322
 H         -23.552675      -53.978790      -12.190397
 C         -19.501963      -54.791759      -14.019600
 C         -18.941900      -53.375587      -14.025074
 C         -18.607939      -55.996754      -14.019909
 C         -17.838755      -53.243736      -12.994663
 C         -17.254988      -55.667496      -13.429046
 C         -16.752516      -54.264637      -13.329057
 H         -19.832302      -52.726799      -13.730360
 H         -18.500002      -53.030865      -14.978388
 H         -19.067799      -56.858654      -13.492746
 H         -18.449724      -56.311810      -15.100453
 H         -18.192926      -53.416313      -11.977887
 H         -17.344507      -52.263775      -13.000597
 H         -16.557110      -56.337242      -13.940140
 H         -17.178526      -55.991432      -12.383669
 H         -15.895800      -54.155396      -12.706362
 H         -16.348969      -53.991821      -14.314870
