20
 generated by VMD
 C         -72.552635     -198.772079      -65.551109
 N         -73.557503     -199.242111      -65.910095
 H         -71.060638     -196.279449      -67.308662
 H         -71.572899     -198.338760      -65.467567
 C         -72.029015     -196.086563      -67.782402
 C         -72.927132     -195.157074      -67.094200
 C         -72.443169     -196.662094      -69.065552
 C         -74.307907     -195.030334      -67.693512
 C         -73.924393     -197.202179      -68.951263
 C         -74.801529     -196.441986      -68.006042
 H         -72.580589     -194.119797      -67.105019
 H         -72.753838     -195.277985      -65.995567
 H         -72.345627     -196.015106      -69.971863
 H         -71.769806     -197.480026      -69.296288
 H         -74.247459     -194.470001      -68.621567
 H         -74.900627     -194.435303      -66.973770
 H         -73.856934     -198.226395      -68.541901
 H         -74.455170     -197.365768      -69.884323
 H         -75.807709     -196.358078      -68.302155
 H         -74.850548     -196.915451      -66.886513
