20
 generated by VMD
 C         -70.145515     -181.377518      -62.795689
 N         -71.097160     -180.926422      -63.212593
 H         -67.392570     -181.738449      -60.597965
 H         -69.207146     -181.753052      -62.372612
 C         -66.786751     -180.884796      -60.780102
 C         -65.280373     -181.136017      -60.539322
 C         -67.393456     -179.498642      -60.557823
 C         -64.362976     -179.926697      -60.653450
 C         -66.297676     -178.498260      -61.019733
 C         -64.981850     -178.634583      -60.261887
 H         -64.915962     -181.954254      -61.243813
 H         -65.210762     -181.755371      -59.512165
 H         -68.259087     -179.238220      -61.008717
 H         -67.513550     -179.321991      -59.505596
 H         -63.945507     -179.695190      -61.601665
 H         -63.639648     -180.185486      -59.979664
 H         -66.613266     -177.447296      -60.783951
 H         -66.211952     -178.499634      -62.127953
 H         -64.405807     -177.761566      -60.369820
 H         -65.288376     -178.592270      -59.173832
