20
 generated by VMD
 C         -20.575079      -52.290932       -9.641111
 N         -21.182865      -51.833141      -10.545497
 H         -18.498449      -49.665768      -10.864805
 H         -19.786282      -52.701084       -9.012202
 C         -17.846701      -49.698463      -11.692104
 C         -17.462742      -51.068371      -12.116743
 C         -17.239651      -48.441563      -12.238787
 C         -16.825155      -51.024178      -13.457356
 C         -16.829834      -48.607277      -13.707456
 C         -15.944996      -49.844601      -13.995046
 H         -18.322367      -51.708305      -12.018209
 H         -16.719627      -51.445965      -11.436841
 H         -18.015364      -47.652561      -12.252164
 H         -16.447805      -48.133850      -11.589478
 H         -17.646811      -51.192677      -14.186057
 H         -16.155252      -51.894341      -13.674598
 H         -16.317921      -47.647804      -14.034682
 H         -17.645367      -48.627106      -14.436339
 H         -15.739318      -50.061951      -15.096200
 H         -14.961781      -49.755413      -13.457919
