20
 generated by VMD
 C         -29.689505      -87.888092      -25.109129
 N         -29.012920      -88.708397      -25.598576
 H         -31.377512      -89.912064      -27.905155
 H         -30.260069      -87.247276      -24.458967
 C         -32.374222      -89.683960      -27.513596
 C         -32.714725      -89.597580      -26.100397
 C         -33.494110      -89.503227      -28.469316
 C         -33.443810      -88.269676      -25.775614
 C         -34.118156      -88.081558      -28.225435
 C         -34.638649      -88.072411      -26.754744
 H         -31.800367      -89.723267      -25.553663
 H         -33.356243      -90.338486      -25.792963
 H         -32.991055      -89.686180      -29.407080
 H         -34.154655      -90.416107      -28.400446
 H         -32.743359      -87.466080      -25.832319
 H         -33.779251      -88.415306      -24.697258
 H         -34.922607      -87.978020      -28.937698
 H         -33.439587      -87.202248      -28.394655
 H         -34.928043      -87.039070      -26.547794
 H         -35.539757      -88.755219      -26.603395
