20
 generated by VMD
 C         -52.880497     -146.839279      -45.246460
 N         -52.417347     -147.285278      -44.321384
 H         -54.595482     -146.725464      -47.671375
 H         -53.342075     -146.498901      -46.176430
 C         -54.479443     -145.927155      -48.347702
 C         -53.170235     -145.866592      -49.183567
 C         -55.103668     -144.652451      -47.950741
 C         -53.361794     -144.765244      -50.286205
 C         -55.331387     -143.632690      -49.075119
 C         -53.963181     -143.382278      -49.787682
 H         -52.868538     -146.854309      -49.435051
 H         -52.337749     -145.532715      -48.468899
 H         -56.100357     -144.965240      -47.619503
 H         -54.497440     -144.250000      -47.051182
 H         -53.962624     -145.084152      -51.095543
 H         -52.498348     -144.731232      -50.831230
 H         -55.719746     -142.765869      -48.639912
 H         -56.055489     -143.937012      -49.893776
 H         -54.177998     -142.713242      -50.630760
 H         -53.241310     -142.943146      -49.074631
