20
 generated by VMD
 C         -69.809853     -183.268738      -65.267906
 N         -69.762009     -182.372375      -66.012245
 H         -67.733742     -184.910767      -62.997517
 H         -69.842575     -184.087128      -64.523300
 C         -67.893013     -184.143539      -62.229454
 C         -67.996162     -184.466095      -60.728405
 C         -67.941887     -182.729385      -62.630905
 C         -67.134071     -183.487625      -59.927475
 C         -67.057442     -181.794434      -61.724365
 C         -67.429558     -181.984268      -60.242226
 H         -67.648323     -185.534729      -60.729946
 H         -69.082298     -184.487549      -60.495644
 H         -67.532333     -182.558044      -63.574253
 H         -69.015694     -182.389984      -62.557392
 H         -66.095467     -183.745193      -60.075893
 H         -67.441711     -183.603821      -58.952049
 H         -67.164589     -180.769653      -62.091351
 H         -66.044876     -182.119064      -61.887371
 H         -66.979843     -181.446472      -59.414375
 H         -68.569511     -181.938522      -60.081844
