20
 generated by VMD
 C         -12.776546      -30.066694       -7.614046
 N         -13.666286      -29.505259       -7.992603
 H         -11.400397      -30.173595       -4.785927
 H         -10.345216      -30.501158       -3.505208
 C         -10.749011      -30.997152       -4.362745
 C          -9.745390      -31.443800       -5.435194
 C         -11.579991      -32.127480       -3.914682
 C          -8.825337      -32.618458       -4.921894
 C         -10.705018      -33.205616       -3.277209
 C          -9.634398      -33.756931       -4.241920
 H          -9.142996      -30.635050       -5.700832
 H         -10.315644      -31.820435       -6.337581
 H         -12.273943      -31.757252       -3.144724
 H         -12.211520      -32.533672       -4.704695
 H          -8.036070      -32.217770       -4.222824
 H          -8.312941      -32.972752       -5.833692
 H         -11.323109      -34.092133       -2.954912
 H         -10.287717      -32.723976       -2.398725
 H          -8.884768      -34.325897       -3.643639
 H         -10.045294      -34.447784       -4.967920
