20
 generated by VMD
 C         -39.588333     -100.497307      -30.910921
 N         -40.469097     -100.088631      -31.532667
 H         -36.790504     -103.014542      -31.045097
 H         -38.696102     -100.687561      -30.264612
 C         -36.588749     -101.987389      -30.954966
 C         -36.679180     -101.148674      -32.200199
 C         -35.564713     -101.612602      -30.018690
 C         -36.482330      -99.714020      -32.236145
 C         -35.198608     -100.152122      -30.074049
 C         -35.240074      -99.408958      -31.405094
 H         -37.644199     -101.420158      -32.634407
 H         -36.000626     -101.697884      -32.865952
 H         -36.105515     -101.944321      -29.081982
 H         -34.710270     -102.237717      -30.230331
 H         -37.311283      -99.178322      -31.844322
 H         -36.464592      -99.426697      -33.323303
 H         -34.244934      -99.997307      -29.632339
 H         -35.905029      -99.580635      -29.464054
 H         -35.184132      -98.304329      -31.165436
 H         -34.337303      -99.695488      -31.998507
