20
 generated by VMD
 C         -13.899731      -42.959145       -6.161778
 N         -12.913838      -43.455563       -6.265882
 H         -14.780985      -45.064732       -9.099920
 H         -14.296603      -43.743748      -10.195346
 C         -15.124586      -44.423496       -9.882958
 C         -16.404549      -43.663483       -9.428413
 C         -15.537216      -45.318275      -11.021954
 C         -16.938292      -42.803661      -10.561095
 C         -15.859490      -44.438835      -12.210758
 C         -17.077166      -43.559628      -11.887848
 H         -16.228796      -43.030743       -8.552033
 H         -17.182903      -44.430553       -9.281331
 H         -14.743797      -45.977718      -11.281351
 H         -16.368835      -45.877895      -10.724188
 H         -16.267998      -41.917442      -10.698643
 H         -17.937126      -42.447334      -10.250124
 H         -16.219433      -45.010750      -13.046050
 H         -14.913229      -43.933090      -12.565932
 H         -17.291351      -42.927883      -12.746038
 H         -17.981026      -44.168190      -11.786861
