20
 generated by VMD
 C         -44.064236     -121.596428      -36.027901
 N         -43.741909     -120.579613      -35.630123
 H         -44.855770     -122.487907      -39.173946
 H         -44.195236     -122.581070      -36.560654
 C         -44.748856     -121.519768      -39.485764
 C         -43.362755     -120.974922      -39.711830
 C         -45.842381     -120.607201      -38.980106
 C         -43.438068     -119.422638      -40.167168
 C         -45.703426     -119.166245      -39.381287
 C         -44.292645     -118.563049      -39.388248
 H         -42.832066     -121.577843      -40.441967
 H         -42.767502     -121.108849      -38.870106
 H         -46.845387     -121.013878      -39.199516
 H         -45.836494     -120.463188      -37.885288
 H         -43.595272     -119.226585      -41.259762
 H         -42.335575     -119.011459      -40.047619
 H         -46.445999     -118.423653      -38.874744
 H         -45.933891     -118.967377      -40.487385
 H         -44.376904     -117.528519      -39.864971
 H         -43.894489     -118.531662      -38.365387
