20
 generated by VMD
 C          -2.348031      -16.576191        2.597029
 N          -1.626247      -17.402029        2.390907
 H          -4.700600      -16.375494        0.315422
 H          -4.777593      -17.727057       -0.806723
 C          -5.379963      -17.085081       -0.109404
 C          -6.434950      -16.338816       -0.965852
 C          -6.082868      -18.053549        0.789004
 C          -7.149469      -17.333387       -1.871010
 C          -7.022985      -19.039095        0.032432
 C          -7.917347      -18.310116       -0.978435
 H          -5.918159      -15.477885       -1.470898
 H          -7.190954      -15.946166       -0.323170
 H          -5.348756      -18.527824        1.440921
 H          -6.812429      -17.448551        1.459298
 H          -6.491015      -17.886200       -2.530047
 H          -7.818188      -16.867865       -2.522357
 H          -7.623557      -19.579861        0.803668
 H          -6.361612      -19.774885       -0.398360
 H          -8.390368      -19.051872       -1.632138
 H          -8.801675      -17.757885       -0.544448
