20
 generated by VMD
 C         -50.398273     -145.097031      -45.181885
 N         -50.263508     -145.228119      -44.044014
 H         -52.988777     -143.128754      -45.903107
 H         -50.691460     -145.059189      -46.248402
 C         -53.423103     -143.103638      -46.884735
 C         -52.592987     -143.189667      -48.058487
 C         -54.700985     -142.274109      -46.959774
 C         -53.311790     -143.265976      -49.401783
 C         -55.515747     -142.481445      -48.273930
 C         -54.509655     -142.160553      -49.494324
 H         -52.086346     -144.114517      -47.909302
 H         -51.984264     -142.341583      -48.171646
 H         -55.234261     -142.357391      -46.027939
 H         -54.487091     -141.214233      -46.694233
 H         -53.756256     -144.147293      -49.677387
 H         -52.547337     -143.189163      -50.150517
 H         -56.316853     -141.753723      -48.458256
 H         -55.781319     -143.579453      -48.384155
 H         -54.982933     -142.327408      -50.390083
 H         -54.076138     -141.209076      -49.374531
