20
 generated by VMD
 C         -32.149940      -92.977280      -25.920246
 N         -32.463314      -94.011292      -25.564098
 H         -33.961102      -95.021019      -28.787642
 H         -32.018486      -92.025734      -26.325491
 C         -34.087040      -93.930466      -28.860228
 C         -35.293629      -93.371918      -28.212135
 C         -33.632782      -93.113686      -29.999968
 C         -35.393803      -91.757645      -27.952301
 C         -33.583469      -91.590118      -29.646204
 C         -34.973118      -91.070061      -29.279593
 H         -35.488323      -93.740395      -27.161652
 H         -36.232288      -93.633118      -28.691328
 H         -32.698883      -93.419388      -30.448877
 H         -34.480434      -93.130730      -30.722734
 H         -34.724728      -91.596001      -27.044714
 H         -36.454647      -91.518280      -27.723736
 H         -33.241703      -91.104752      -30.605871
 H         -32.961437      -91.268959      -28.835827
 H         -34.870125      -89.982040      -29.015610
 H         -35.826347      -91.066971      -30.005348
