20
 generated by VMD
 C         -73.940865     -200.699051      -65.527443
 N         -72.900826     -201.110046      -65.223267
 H         -73.908333     -197.966858      -66.510582
 H         -74.795158     -200.134949      -65.704185
 C         -73.843224     -197.537155      -67.486000
 C         -74.259872     -196.032471      -67.384987
 C         -73.134491     -198.064972      -68.701881
 C         -73.619171     -195.204681      -68.526390
 C         -73.761406     -197.403610      -69.954376
 C         -73.822067     -195.895782      -69.836761
 H         -74.040565     -195.681503      -66.420616
 H         -75.402946     -195.956985      -67.583618
 H         -72.026833     -198.083923      -68.554482
 H         -73.438049     -199.101837      -68.832314
 H         -72.565315     -195.079346      -68.284698
 H         -74.029594     -194.167374      -68.464561
 H         -74.807465     -197.772324      -70.132195
 H         -73.195442     -197.569946      -70.828362
 H         -73.129463     -195.393677      -70.625923
 H         -74.755966     -195.528488      -70.141090
