20
 generated by VMD
 C         -10.725022      -37.576050       -7.294322
 N         -11.556532      -37.366718       -8.049308
 H         -12.483643      -40.093143       -8.132821
 H         -13.797522      -39.651634       -6.924357
 C         -13.587898      -40.181988       -7.920951
 C         -13.886362      -41.681248       -7.985152
 C         -14.360252      -39.421848       -9.051415
 C         -15.379973      -41.811340       -7.703003
 C         -15.875065      -39.687714       -9.050107
 C         -16.247482      -41.177288       -8.845339
 H         -13.241562      -42.277821       -7.331439
 H         -13.510878      -42.015640       -8.985316
 H         -14.143011      -38.369183       -9.012592
 H         -13.914883      -39.688202      -10.015332
 H         -15.659086      -41.314243       -6.744878
 H         -15.685182      -42.830490       -7.504582
 H         -16.416172      -39.272285       -9.959997
 H         -16.322948      -39.172161       -8.206748
 H         -17.299105      -41.250671       -8.567749
 H         -16.137074      -41.668629       -9.838007
