20
 generated by VMD
 C         -29.728682      -89.416328      -25.156792
 N         -29.133581      -89.598351      -26.107521
 H         -31.991756      -91.343697      -27.370588
 H         -30.138161      -89.375854      -24.231304
 C         -32.895126      -90.750023      -27.548672
 C         -34.272427      -91.055061      -26.973200
 C         -32.729267      -89.556305      -28.473068
 C         -35.134155      -89.817352      -26.662636
 C         -33.480858      -88.369835      -27.798365
 C         -34.930729      -88.732132      -27.614977
 H         -34.071671      -91.695152      -26.126476
 H         -34.698128      -91.554558      -27.816498
 H         -31.749691      -89.145813      -28.694885
 H         -33.287060      -89.754295      -29.406500
 H         -34.748882      -89.410339      -25.704214
 H         -36.116714      -90.173271      -26.306196
 H         -33.447144      -87.369797      -28.262220
 H         -32.924522      -88.286392      -26.884890
 H         -35.419254      -87.843880      -27.178854
 H         -35.359013      -89.015526      -28.765913
