20
 generated by VMD
 C         -58.734138     -158.854919      -58.196762
 N         -58.716618     -159.766281      -57.421795
 H         -58.881828     -160.912918      -54.805164
 H         -58.685608     -158.026077      -58.888760
 C         -59.402771     -161.290436      -53.921463
 C         -58.730572     -161.693649      -52.660244
 C         -60.671532     -162.039444      -54.172546
 C         -59.745827     -161.589798      -51.612354
 C         -61.655922     -161.814316      -53.031918
 C         -61.127724     -162.277100      -51.754410
 H         -57.903069     -161.040985      -52.290344
 H         -58.254436     -162.587204      -52.812927
 H         -61.263157     -161.739304      -55.032772
 H         -60.366730     -163.176163      -54.288647
 H         -59.857452     -160.573959      -51.198074
 H         -59.321106     -162.161179      -50.703064
 H         -62.549820     -162.326767      -53.339424
 H         -61.798611     -160.754532      -53.043064
 H         -61.790283     -162.132095      -50.848038
 H         -60.954029     -163.361160      -51.609360
