20
 generated by VMD
 C         -67.516624     -180.032745      -58.300293
 N         -68.440376     -180.079575      -58.970730
 H         -67.118683     -176.838013      -60.170620
 H         -66.620201     -180.046005      -57.688744
 C         -66.310768     -176.118927      -60.118446
 C         -66.077576     -175.230087      -61.266422
 C         -65.146706     -176.706268      -59.336826
 C         -64.786499     -174.338638      -61.296242
 C         -63.977791     -175.767197      -59.291199
 C         -63.592690     -175.018692      -60.511250
 H         -66.913956     -174.500870      -61.516308
 H         -65.845299     -175.928436      -62.040550
 H         -65.632927     -177.011963      -58.373405
 H         -64.992744     -177.552322      -59.987247
 H         -65.023598     -173.391754      -60.796391
 H         -64.479385     -174.228912      -62.404366
 H         -63.106972     -176.189575      -58.756580
 H         -64.248543     -174.950394      -58.635975
 H         -62.953739     -174.184586      -60.216644
 H         -63.159870     -175.693527      -61.220192
