20
 generated by VMD
 C         -67.731102     -191.684570      -66.890938
 N         -66.697708     -192.196304      -66.968269
 H         -70.751640     -189.238220      -66.442368
 H         -68.841797     -191.460754      -66.834785
 C         -71.223633     -189.744354      -65.578835
 C         -71.820160     -191.133469      -65.829483
 C         -71.196632     -189.265228      -64.130287
 C         -73.126122     -191.291443      -65.161781
 C         -72.599014     -189.450531      -63.482182
 C         -73.338165     -190.700485      -63.733459
 H         -71.161919     -191.868164      -65.389381
 H         -71.927979     -191.258102      -66.873108
 H         -70.488838     -189.966934      -63.620106
 H         -71.000633     -188.195618      -64.131203
 H         -73.453949     -192.382599      -65.270767
 H         -73.910378     -190.819016      -65.786942
 H         -73.312683     -188.585037      -63.774841
 H         -72.486153     -189.157318      -62.376953
 H         -72.955009     -191.559723      -63.027363
 H         -74.466614     -190.422943      -63.595818
