20
 generated by VMD
 C         -30.996878      -75.645973      -21.502491
 N         -31.999311      -75.214294      -21.087633
 H         -27.901756      -74.871925      -20.248266
 H         -29.993450      -75.904045      -21.467783
 C         -26.825239      -74.936104      -20.477314
 C         -26.505398      -76.151184      -21.300097
 C         -25.778271      -73.880310      -20.395298
 C         -25.984261      -75.724121      -22.677336
 C         -25.370274      -73.458786      -21.767391
 C         -24.922813      -74.625931      -22.617695
 H         -27.424761      -76.771873      -21.294811
 H         -25.766645      -76.792503      -20.813766
 H         -26.347103      -73.016289      -19.864124
 H         -24.867870      -74.142456      -19.811445
 H         -26.817644      -75.270416      -23.277868
 H         -25.556952      -76.536232      -23.280550
 H         -24.422899      -72.829948      -21.726322
 H         -26.132639      -72.929787      -22.370501
 H         -24.865488      -74.086967      -23.569576
 H         -23.976532      -75.074165      -22.307665
