20
 generated by VMD
 C         -40.077225     -100.759354      -30.866501
 N         -40.412510      -99.913681      -31.590942
 H         -37.085007     -103.155426      -31.117216
 H         -39.911285     -101.652267      -30.396246
 C         -36.567791     -102.203323      -31.315447
 C         -36.455677     -101.618111      -32.647911
 C         -35.878410     -101.824310      -30.060041
 C         -36.187160     -100.147301      -32.480206
 C         -35.545071     -100.301155      -29.872078
 C         -35.321831      -99.697891      -31.227016
 H         -37.429493     -101.756729      -33.159901
 H         -35.749290     -102.163399      -33.326878
 H         -36.549080     -102.000999      -29.174711
 H         -34.948627     -102.339546      -30.038805
 H         -37.173134      -99.813599      -32.515030
 H         -35.767735      -99.666756      -33.371296
 H         -34.722683     -100.095970      -29.160402
 H         -36.432060      -99.791557      -29.513361
 H         -35.576950      -98.639687      -31.256632
 H         -34.215755      -99.784309      -31.344271
