20
 generated by VMD
 C         -69.091621     -181.232727      -61.245953
 N         -69.855186     -180.437897      -60.945282
 H         -67.259369     -178.453979      -59.639858
 H         -68.381325     -182.011002      -61.589993
 C         -66.242165     -178.273926      -59.831509
 C         -65.721329     -178.409622      -61.209206
 C         -65.457642     -177.458618      -58.791950
 C         -65.170090     -177.091751      -61.745064
 C         -64.814156     -176.155136      -59.368744
 C         -64.150467     -176.556335      -60.655281
 H         -66.340912     -178.818268      -61.967548
 H         -64.873230     -178.998184      -61.210228
 H         -66.305962     -177.227631      -58.049477
 H         -64.839706     -178.156860      -58.293922
 H         -65.948547     -176.371292      -61.914173
 H         -64.742737     -177.172699      -62.723450
 H         -64.071892     -175.740814      -58.692371
 H         -65.586426     -175.409256      -59.509838
 H         -63.777767     -175.589600      -61.137497
 H         -63.299801     -177.210144      -60.673550
