20
 generated by VMD
 C         -23.270435      -53.042561      -12.733326
 N         -22.910566      -52.580410      -13.726086
 H         -20.389376      -54.683796      -13.720924
 H         -23.587425      -53.144955      -11.730024
 C         -19.357462      -54.538776      -13.704861
 C         -19.030241      -53.078312      -14.108232
 C         -18.395929      -55.622387      -14.013676
 C         -17.641232      -52.708927      -13.494643
 C         -17.233612      -55.294640      -13.141502
 C         -16.701866      -53.857086      -13.253537
 H         -19.853601      -52.438629      -13.756277
 H         -18.950697      -53.015640      -15.177752
 H         -18.823170      -56.582962      -13.723075
 H         -18.053629      -55.745399      -15.088024
 H         -17.886179      -52.274509      -12.499771
 H         -17.124382      -51.917511      -14.048228
 H         -16.432800      -55.979397      -13.384151
 H         -17.439957      -55.485649      -12.048018
 H         -16.095093      -53.617004      -12.424036
 H         -16.022840      -53.850266      -14.098199
