20
 generated by VMD
 C         -69.182556     -194.279480      -64.632805
 N         -68.385986     -193.920044      -65.442337
 H         -71.021652     -194.019272      -67.651428
 H         -69.822166     -194.688538      -63.898937
 C         -71.910614     -193.567474      -67.199081
 C         -71.562813     -192.237961      -66.636490
 C         -73.308830     -194.010696      -67.211449
 C         -72.553482     -191.708649      -65.535904
 C         -74.335869     -192.963623      -66.830864
 C         -73.946777     -192.353073      -65.504105
 H         -71.532120     -191.420731      -67.487885
 H         -70.495415     -192.129501      -66.226776
 H         -73.587769     -194.314667      -68.261177
 H         -73.322327     -195.071152      -66.714615
 H         -72.786278     -190.632370      -65.649040
 H         -72.141968     -191.687057      -64.504845
 H         -75.413330     -193.368301      -66.751358
 H         -74.332596     -192.249023      -67.651039
 H         -74.724792     -191.618591      -65.188065
 H         -73.985779     -193.111313      -64.640236
