20
 generated by VMD
 C         -74.920403     -201.843796      -66.533997
 N         -74.575058     -201.306091      -65.533173
 H         -76.365898     -199.112640      -68.876396
 H         -75.371033     -202.298615      -67.374458
 C         -75.329308     -198.759857      -69.048622
 C         -74.996117     -197.522064      -68.289780
 C         -74.317482     -199.403580      -69.833252
 C         -73.469460     -197.306412      -68.038612
 C         -73.296745     -198.366943      -70.267906
 C         -72.509735     -197.856293      -69.153946
 H         -75.537254     -197.459351      -67.401970
 H         -75.435555     -196.658508      -68.902565
 H         -73.799355     -200.061691      -69.172462
 H         -74.755966     -199.823273      -70.787460
 H         -73.320427     -197.970428      -67.202347
 H         -73.311119     -196.216583      -67.829079
 H         -73.669968     -197.521927      -70.835808
 H         -72.674103     -198.906403      -70.927795
 H         -71.871437     -198.626526      -68.795715
 H         -71.764351     -197.000870      -69.294540
