20
 generated by VMD
 C         -47.813049     -139.602463      -46.026909
 N         -46.751675     -139.244232      -46.060760
 H         -50.798569     -139.089539      -44.836437
 H         -48.750687     -140.166046      -46.069103
 C         -51.798565     -139.096298      -45.235878
 C         -51.897957     -139.392014      -46.723099
 C         -53.205502     -138.798996      -44.592781
 C         -53.079964     -140.379257      -47.144054
 C         -54.240402     -139.882156      -44.869179
 C         -54.374733     -140.045456      -46.449982
 H         -50.903828     -139.703110      -47.247799
 H         -52.023056     -138.423355      -47.249870
 H         -53.151096     -138.728714      -43.543045
 H         -53.600540     -137.861130      -44.859081
 H         -52.759014     -141.451477      -46.855446
 H         -53.105446     -140.357849      -48.240898
 H         -55.119701     -139.638947      -44.347816
 H         -53.942234     -140.812943      -44.314442
 H         -55.076847     -140.945450      -46.704056
 H         -54.678612     -139.097336      -47.026688
