20
 generated by VMD
 C         -38.291412     -115.012917      -35.457615
 N         -39.148277     -115.273026      -34.684601
 H         -41.424599     -115.799149      -36.766758
 H         -37.410652     -114.738327      -36.033169
 C         -42.454769     -115.398468      -37.067108
 C         -42.920517     -115.200409      -38.472206
 C         -43.409412     -115.266838      -35.976250
 C         -44.144920     -116.075325      -38.693905
 C         -44.821674     -115.923141      -36.276005
 C         -45.252609     -115.750526      -37.687393
 H         -42.220192     -115.662247      -39.102264
 H         -43.132587     -114.168182      -38.747089
 H         -42.913528     -115.706017      -35.184807
 H         -43.531166     -114.246208      -35.795235
 H         -43.917370     -117.159126      -38.609661
 H         -44.446064     -115.921944      -39.768345
 H         -45.447105     -115.516312      -35.515236
 H         -44.722153     -116.968681      -36.030437
 H         -46.180183     -116.396065      -38.027298
 H         -45.562241     -114.830154      -37.903454
