20
 generated by VMD
 C         -10.445209      -39.873936       -6.825034
 N         -11.294922      -40.176510       -6.141447
 H         -13.534194      -40.705662       -9.209021
 H         -15.172770      -39.852566       -9.480247
 C         -14.659324      -40.871513       -9.329930
 C         -15.389454      -41.576271       -8.176139
 C         -14.681148      -41.705837      -10.580088
 C         -16.762611      -42.144703       -8.509966
 C         -16.096636      -42.081207      -10.989030
 C         -16.795227      -42.806759       -9.822592
 H         -15.435116      -40.881184       -7.356397
 H         -14.709521      -42.379150       -7.886950
 H         -14.215797      -41.227417      -11.427660
 H         -14.027556      -42.556110      -10.426382
 H         -17.550116      -41.364620       -8.461974
 H         -17.083929      -42.841049       -7.772202
 H         -16.144184      -42.762115      -11.852504
 H         -16.745008      -41.225990      -11.236631
 H         -17.831648      -43.044628      -10.119699
 H         -16.329609      -43.807625       -9.738301
