20
 generated by VMD
 C         -75.387398     -201.819107      -66.219154
 N         -76.153694     -202.531021      -65.658150
 H         -76.013092     -199.841354      -68.980240
 H         -74.753906     -201.174194      -66.751358
 C         -75.073586     -199.395309      -69.133209
 C         -74.848557     -198.169022      -68.259895
 C         -74.102013     -199.802719      -70.184479
 C         -73.441895     -197.805450      -68.251495
 C         -73.072777     -198.687134      -70.676109
 C         -72.731735     -197.694229      -69.619789
 H         -75.209206     -198.386612      -67.171249
 H         -75.544388     -197.416809      -68.735847
 H         -73.474464     -200.572891      -69.738907
 H         -74.495705     -200.359329      -71.096603
 H         -72.872696     -198.388275      -67.484619
 H         -73.448029     -196.811630      -67.667389
 H         -73.561119     -198.035645      -71.433693
 H         -72.199532     -199.296844      -71.142998
 H         -71.720253     -197.751877      -69.405991
 H         -72.801376     -196.625427      -69.995583
