20
 generated by VMD
 C         -61.654003     -156.089783      -54.311977
 N         -61.104622     -155.029282      -54.144035
 H         -58.758133     -155.139297      -52.000492
 H         -62.144264     -157.036118      -54.367561
 C         -57.740837     -155.142776      -51.621174
 C         -57.437130     -154.515762      -50.278156
 C         -56.651161     -155.457352      -52.539745
 C         -56.153893     -154.952728      -49.593075
 C         -55.535210     -155.991943      -51.733047
 C         -55.026115     -155.149765      -50.630276
 H         -58.279392     -154.495010      -49.587093
 H         -57.316437     -153.442154      -50.576717
 H         -56.997318     -156.265564      -53.242779
 H         -56.630939     -154.565628      -53.096066
 H         -56.348934     -155.905472      -49.073250
 H         -55.938553     -154.424866      -48.680172
 H         -54.645496     -156.128326      -52.363625
 H         -55.750328     -157.040192      -51.507381
 H         -54.220947     -155.638260      -50.160988
 H         -54.729031     -154.088348      -50.992462
