20
 generated by VMD
 C         -23.977379      -69.690727      -16.870127
 N         -24.306210      -70.008041      -15.780212
 H         -23.774115      -66.844650      -18.953939
 H         -23.485548      -69.340721      -17.727663
 C         -24.387054      -67.666962      -19.345415
 C         -23.862698      -68.485420      -20.471102
 C         -25.807528      -67.581894      -19.377386
 C         -24.710079      -69.695946      -20.900967
 C         -26.622528      -68.858971      -19.686251
 C         -26.142630      -69.498772      -21.078287
 H         -22.911232      -68.763390      -20.058374
 H         -23.689320      -67.920013      -21.287062
 H         -26.197472      -67.250031      -18.397127
 H         -26.230198      -66.713516      -20.053778
 H         -24.544697      -70.459801      -20.188202
 H         -24.147440      -70.032784      -21.749689
 H         -27.685556      -68.724716      -19.782045
 H         -26.338377      -69.670486      -19.023039
 H         -26.742666      -70.377380      -21.339500
 H         -26.298811      -68.840584      -21.954872
