20
 generated by VMD
 C         -49.233883     -126.912407      -39.916641
 N         -50.057629     -127.183678      -39.127304
 H         -46.332623     -127.121788      -42.632259
 H         -48.657589     -126.721245      -40.829578
 C         -46.276501     -126.425636      -41.877907
 C         -45.281303     -126.810509      -40.838383
 C         -46.675793     -125.043106      -41.749142
 C         -44.186272     -125.830994      -40.368282
 C         -45.645042     -123.882515      -41.454025
 C         -44.701393     -124.368134      -40.220749
 H         -44.815430     -127.795433      -41.153454
 H         -45.931656     -127.005249      -39.900826
 H         -47.143974     -124.761063      -42.741783
 H         -47.378029     -124.908951      -40.942387
 H         -43.378738     -125.843025      -41.120968
 H         -43.747688     -126.287354      -39.483631
 H         -46.275978     -123.020821      -41.102928
 H         -44.982178     -123.747383      -42.281414
 H         -43.958012     -123.565521      -39.913322
 H         -45.427307     -124.422485      -39.414833
