20
 generated by VMD
 C          -3.383697      -19.626125        3.274169
 N          -3.670113      -18.559635        3.120708
 H          -5.573242      -20.477039        0.072931
 H          -6.437065      -21.340515       -1.261562
 C          -6.211043      -20.353132       -0.813169
 C          -5.614824      -19.424541       -1.941442
 C          -7.492591      -19.651709       -0.223945
 C          -6.666252      -19.211586       -3.032114
 C          -8.519794      -19.563816       -1.329987
 C          -8.036394      -18.712557       -2.535063
 H          -4.752967      -19.943073       -2.287762
 H          -5.321549      -18.373590       -1.532419
 H          -7.929002      -20.248829        0.545334
 H          -7.208961      -18.679705       -0.018632
 H          -6.766389      -20.132683       -3.561764
 H          -6.321608      -18.430559       -3.685201
 H          -9.378113      -19.029156       -0.993124
 H          -8.859965      -20.537189       -1.695537
 H          -8.803714      -18.910635       -3.326009
 H          -8.050925      -17.638920       -2.242539
