20
 generated by VMD
 C         -25.021051      -70.927956      -16.848114
 N         -25.232901      -70.877922      -15.696826
 H         -23.854542      -68.166801      -18.821392
 H         -24.942213      -70.926994      -17.870180
 C         -24.480202      -68.807014      -19.510803
 C         -23.877493      -69.582520      -20.599146
 C         -25.840145      -68.338371      -19.706978
 C         -24.841080      -70.526093      -21.300875
 C         -26.816526      -69.212227      -20.523272
 C         -26.140524      -69.749527      -21.726252
 H         -23.083969      -70.225136      -20.220602
 H         -23.640280      -68.976700      -21.368725
 H         -26.351698      -68.040527      -18.793514
 H         -25.704079      -67.352684      -20.120712
 H         -25.092253      -71.387024      -20.734343
 H         -24.361534      -70.932037      -22.224058
 H         -27.532896      -68.463226      -20.752348
 H         -27.280293      -69.998138      -19.965128
 H         -26.914639      -70.437920      -22.105856
 H         -25.923840      -68.985008      -22.518049
