20
 generated by VMD
 C         -57.808704     -168.290680      -55.097675
 N         -56.741188     -168.536514      -54.873230
 H         -61.632439     -167.248642      -55.289722
 H         -58.844254     -168.042786      -55.206974
 C         -62.403290     -166.927872      -56.021027
 C         -62.585758     -167.518616      -57.334606
 C         -63.048054     -165.691345      -55.587410
 C         -64.137115     -167.444290      -57.664989
 C         -64.586792     -165.659088      -55.936260
 C         -64.808380     -166.090714      -57.466465
 H         -62.355297     -168.698959      -57.405205
 H         -62.038513     -166.957352      -58.019939
 H         -62.988113     -165.551102      -54.402626
 H         -62.529083     -164.811691      -55.979012
 H         -64.667015     -168.223709      -57.034630
 H         -64.220726     -167.740112      -58.769718
 H         -64.923935     -164.650528      -55.998547
 H         -65.078133     -166.410538      -55.311657
 H         -65.827858     -165.994278      -57.657719
 H         -64.408073     -165.308319      -58.067207
