20
 generated by VMD
 C         -30.569918      -75.754623      -22.511219
 N         -31.287468      -74.884491      -22.448666
 H         -28.754419      -78.236099      -21.445896
 H         -29.806053      -76.660324      -22.707264
 C         -27.954315      -77.527985      -21.638199
 C         -26.774422      -78.039574      -22.520041
 C         -27.698574      -76.383163      -20.681461
 C         -25.901434      -76.946533      -23.002890
 C         -26.846207      -75.297234      -21.307245
 C         -25.516228      -75.817253      -22.019802
 H         -27.179342      -78.438187      -23.423244
 H         -26.228647      -78.646210      -21.805567
 H         -28.584532      -75.949371      -20.136049
 H         -27.175184      -76.772621      -19.868589
 H         -26.470945      -76.560806      -23.892794
 H         -24.999229      -77.410728      -23.458454
 H         -26.685186      -74.381866      -20.610498
 H         -27.425816      -74.950539      -22.208948
 H         -24.934944      -75.052284      -22.565409
 H         -24.912643      -76.197952      -21.191107
