20
 generated by VMD
 C         -20.085207      -56.154453      -16.812227
 N         -21.158907      -56.390457      -16.525221
 H         -21.870136      -59.451893      -17.367426
 H         -19.006174      -55.782478      -16.657156
 C         -22.237669      -59.955433      -16.504436
 C         -22.646763      -59.451797      -15.187843
 C         -22.021233      -61.442139      -16.528751
 C         -21.524391      -59.729717      -14.185649
 C         -20.874857      -61.803417      -15.598245
 C         -20.943361      -61.113579      -14.188737
 H         -23.578613      -59.980644      -14.952437
 H         -22.818672      -58.406528      -15.215470
 H         -22.981577      -61.836418      -16.124777
 H         -21.883564      -61.793633      -17.563499
 H         -21.952515      -59.580685      -13.145713
 H         -20.785831      -58.939018      -14.152508
 H         -19.926844      -61.481953      -16.086897
 H         -20.784950      -62.926586      -15.620315
 H         -21.673006      -61.701328      -13.563883
 H         -19.958467      -61.165310      -13.770820
