20
 generated by VMD
 C         -60.816498     -156.272461      -54.768040
 N         -60.193489     -155.507187      -55.397484
 H         -59.738228     -157.056961      -51.531906
 H         -61.399323     -156.822906      -54.032387
 C         -58.697887     -156.901474      -51.900757
 C         -57.986778     -155.589279      -51.850555
 C         -57.868851     -158.102066      -52.102127
 C         -56.824188     -155.620926      -50.816734
 C         -56.830372     -158.115402      -51.067760
 C         -56.011066     -156.777374      -51.027596
 H         -58.643524     -154.851700      -51.481022
 H         -57.788036     -155.338394      -52.886856
 H         -58.545822     -158.994766      -52.061966
 H         -57.420605     -157.970810      -53.158554
 H         -57.118336     -155.501648      -49.777988
 H         -56.438965     -154.606873      -50.910984
 H         -56.252022     -159.039536      -51.075439
 H         -57.254860     -158.123611      -50.005104
 H         -55.359455     -156.818893      -50.181961
 H         -55.409420     -156.706421      -51.990082
