20
 generated by VMD
 C         -38.855164      -98.780457      -27.762543
 N         -38.488686      -99.869438      -27.523481
 H         -37.437698      -97.862732      -30.931355
 H         -39.291359      -97.794167      -28.117287
 C         -36.417313      -97.778534      -30.838863
 C         -35.536930      -98.253899      -31.960230
 C         -35.676479      -97.282272      -29.631020
 C         -34.438053      -97.251335      -32.274403
 C         -34.482735      -96.374786      -29.898516
 C         -33.601685      -97.205673      -31.054216
 H         -36.144798      -98.432045      -32.943367
 H         -35.186676      -99.262138      -31.697001
 H         -36.383690      -96.755623      -28.944469
 H         -35.357090      -98.203827      -29.109562
 H         -35.042023      -96.314598      -32.373077
 H         -33.839691      -97.542381      -33.234051
 H         -33.888992      -96.200989      -29.020588
 H         -34.865627      -95.388680      -30.295527
 H         -32.693626      -96.665764      -31.139380
 H         -33.268883      -98.241249      -30.767719
