20
 generated by VMD
 C         -58.561813     -161.797974      -56.489662
 N         -57.925129     -160.970490      -56.089077
 H         -59.681019     -165.015640      -55.250202
 H         -59.131405     -162.619003      -56.892986
 C         -60.276890     -164.262726      -54.816376
 C         -59.913006     -163.629013      -53.466961
 C         -61.722549     -164.347443      -55.339054
 C         -60.641506     -162.343002      -53.356388
 C         -62.533176     -163.242081      -54.818565
 C         -62.261009     -162.637161      -53.422680
 H         -58.848751     -163.408127      -53.481167
 H         -60.374809     -164.363098      -52.729485
 H         -61.685997     -164.392746      -56.376263
 H         -62.127537     -165.331512      -54.963341
 H         -60.395504     -161.644165      -54.261105
 H         -60.525810     -161.738937      -52.470432
 H         -63.541904     -163.583130      -54.873329
 H         -62.509415     -162.412628      -55.598480
 H         -62.810211     -161.678116      -53.385315
 H         -62.700386     -163.191315      -52.562180
