20
 generated by VMD
 C         -69.092636     -184.957031      -66.579391
 N         -69.418579     -185.295258      -67.621864
 H         -69.767136     -182.949875      -63.215237
 H         -68.842964     -184.565552      -65.546600
 C         -69.318741     -183.368195      -62.270374
 C         -69.819992     -184.492554      -61.535149
 C         -68.088348     -182.733856      -61.714436
 C         -68.643120     -185.455704      -61.346149
 C         -66.991753     -183.570450      -61.214256
 C         -67.615486     -184.722153      -60.415356
 H         -70.613533     -184.954971      -62.178089
 H         -70.195427     -184.033752      -60.627586
 H         -67.593559     -182.094208      -62.423683
 H         -68.518059     -182.063904      -60.851643
 H         -68.227638     -185.702194      -62.309605
 H         -68.992912     -186.352142      -60.901421
 H         -66.207344     -182.991257      -60.704865
 H         -66.465981     -184.075058      -62.059483
 H         -66.623550     -185.346176      -60.326927
 H         -67.848152     -184.375732      -59.431648
