20
 generated by VMD
 C         -31.069132      -75.219971      -21.407116
 N         -32.002808      -75.763786      -21.745457
 H         -28.184595      -75.972160      -20.410805
 H         -30.030472      -74.686844      -21.246883
 C         -27.375423      -75.754387      -21.081556
 C         -26.699406      -76.897476      -21.820938
 C         -26.692709      -74.560837      -20.639704
 C         -25.737728      -76.302315      -22.869368
 C         -25.606197      -74.072952      -21.634844
 C         -24.869434      -75.246605      -22.288929
 H         -27.290148      -77.562752      -22.318628
 H         -26.215391      -77.615288      -21.164427
 H         -27.349249      -73.628799      -20.503098
 H         -26.153616      -74.853920      -19.736784
 H         -26.261225      -75.976570      -23.775187
 H         -25.134699      -77.148193      -23.147425
 H         -24.900093      -73.377396      -21.243971
 H         -26.079243      -73.479561      -22.382984
 H         -24.228268      -75.000305      -23.124836
 H         -24.087236      -75.549072      -21.595200
