20
 generated by VMD
 C         -61.657013     -154.558640      -53.954430
 N         -62.170227     -155.574890      -53.528912
 H         -58.210644     -154.787033      -52.307495
 H         -61.273350     -153.628876      -54.331547
 C         -57.267448     -154.735397      -51.759239
 C         -57.275131     -154.362000      -50.268784
 C         -55.902515     -154.603592      -52.442478
 C         -56.009888     -154.712845      -49.426144
 C         -54.720463     -154.991821      -51.531067
 C         -54.700745     -154.364517      -50.212482
 H         -58.229359     -154.846130      -49.913898
 H         -57.351665     -153.281830      -50.024677
 H         -55.985497     -155.306091      -53.261925
 H         -55.586594     -153.577072      -52.859608
 H         -55.922104     -155.812775      -49.358250
 H         -55.911621     -154.196747      -48.430923
 H         -53.859901     -154.572067      -52.051270
 H         -54.613075     -156.116104      -51.360329
 H         -53.699612     -154.441849      -49.704666
 H         -54.653374     -153.323685      -50.460083
