20
 generated by VMD
 C         -60.819336     -153.307938      -52.363682
 N         -60.893105     -153.238739      -51.214931
 H         -57.592381     -153.823380      -50.641144
 H         -60.720146     -153.190582      -53.448380
 C         -56.594948     -153.373596      -50.722111
 C         -55.646503     -153.703964      -49.585861
 C         -56.453499     -152.060196      -51.428997
 C         -54.249981     -153.279892      -49.826904
 C         -55.028580     -151.818329      -51.720722
 C         -54.146835     -151.853088      -50.420849
 H         -55.644047     -154.762589      -49.269669
 H         -56.196861     -153.331223      -48.764488
 H         -57.159729     -151.960236      -52.235142
 H         -56.675632     -151.348373      -50.595711
 H         -53.848553     -154.089417      -50.508984
 H         -53.733719     -153.304962      -48.883034
 H         -54.885609     -150.856628      -52.125240
 H         -54.698418     -152.516632      -52.412609
 H         -53.219093     -151.640717      -50.763271
 H         -54.546135     -151.015900      -49.793121
