20
 generated by VMD
 C         -30.987669      -77.661766      -25.299967
 N         -32.005848      -77.067879      -25.514399
 H         -29.345068      -77.109154      -22.559168
 H         -30.084549      -78.300629      -24.875477
 C         -28.566605      -77.790390      -22.209475
 C         -27.469090      -78.043602      -23.183826
 C         -29.063219      -78.870193      -21.380396
 C         -26.310221      -78.779877      -22.510155
 C         -27.876513      -79.661064      -20.883921
 C         -26.841326      -80.079872      -21.907682
 H         -27.137260      -77.100876      -23.570463
 H         -27.940916      -78.729027      -23.850630
 H         -29.571018      -78.495956      -20.440582
 H         -29.646084      -79.524612      -22.034210
 H         -25.818321      -78.084961      -21.836000
 H         -25.479378      -79.101334      -23.174673
 H         -28.172565      -80.647629      -20.560091
 H         -27.458740      -79.338966      -19.926905
 H         -25.965548      -80.550537      -21.391155
 H         -27.159172      -80.775238      -22.742292
