20
 generated by VMD
 C          -9.089354      -23.804054        2.512900
 N          -8.584346      -24.782730        2.656729
 H          -8.325912      -23.285065       -1.106402
 H          -9.083470      -22.569262       -2.619671
 C          -8.162042      -22.992849       -2.155398
 C          -7.639518      -24.108116       -3.031888
 C          -7.188394      -21.852385       -2.153014
 C          -7.359924      -23.548103       -4.465945
 C          -6.906605      -21.282244       -3.458749
 C          -6.476151      -22.329529       -4.442085
 H          -8.363388      -24.915499       -3.041930
 H          -6.672313      -24.401503       -2.696040
 H          -7.440640      -21.026377       -1.454757
 H          -6.258612      -22.216400       -1.690017
 H          -8.380992      -23.334869       -4.894150
 H          -6.946448      -24.323116       -5.088048
 H          -6.149635      -20.448767       -3.403563
 H          -7.802551      -20.765570       -3.857726
 H          -6.402824      -21.882906       -5.458385
 H          -5.458053      -22.610720       -4.228463
