20
 generated by VMD
 C         -47.937569     -134.427673      -47.210560
 N         -48.019207     -133.855331      -48.188999
 H         -49.784760     -134.348312      -44.551785
 H         -48.047272     -135.146896      -46.404022
 C         -50.256294     -135.221924      -44.042698
 C         -50.618660     -136.338409      -44.881878
 C         -51.210136     -135.004898      -42.761192
 C         -50.787090     -137.617065      -44.089172
 C         -51.316162     -136.279556      -42.003075
 C         -51.785652     -137.540451      -42.865265
 H         -49.788914     -136.411911      -45.673874
 H         -51.522083     -136.049759      -45.389069
 H         -50.787399     -134.254379      -42.085072
 H         -52.166443     -134.607162      -43.163609
 H         -49.808620     -138.065445      -43.766647
 H         -51.267548     -138.396683      -44.687515
 H         -51.928696     -136.076889      -41.067028
 H         -50.368881     -136.607681      -41.583405
 H         -51.653786     -138.433228      -42.176704
 H         -52.900253     -137.317413      -43.255413
