20
 generated by VMD
 C         -49.663513     -133.206177      -46.830971
 N         -48.863327     -132.415344      -47.126240
 H         -48.090973     -134.458969      -44.520885
 H         -50.600155     -133.609985      -46.556026
 C         -48.978249     -134.691147      -43.995979
 C         -49.314392     -136.175003      -44.110546
 C         -49.961849     -133.849319      -43.185520
 C         -50.107090     -136.759430      -42.933281
 C         -50.609859     -134.548218      -42.065201
 C         -51.196175     -135.908890      -42.479591
 H         -48.455772     -136.769775      -44.411728
 H         -49.983196     -136.112457      -45.022106
 H         -49.410854     -133.077225      -42.743210
 H         -50.705414     -133.404190      -43.782139
 H         -49.388073     -136.969681      -42.124062
 H         -50.369999     -137.827133      -43.177464
 H         -51.416168     -133.830139      -41.664696
 H         -49.902782     -134.734894      -41.192760
 H         -51.630920     -136.419586      -41.704727
 H         -51.777027     -135.870010      -43.370926
