20
 generated by VMD
 C         -80.673500     -205.691895      -72.013916
 N         -79.929054     -206.621704      -71.987396
 H         -76.944160     -204.256714      -71.918388
 H         -81.409065     -204.855728      -72.163895
 C         -76.053055     -204.655899      -71.442856
 C         -75.050064     -203.614563      -71.137314
 C         -76.238571     -205.924026      -70.699142
 C         -74.318733     -203.760452      -69.729546
 C         -75.604958     -205.792343      -69.236740
 C         -74.171722     -205.161301      -69.265923
 H         -75.511787     -202.589844      -71.130363
 H         -74.269432     -203.563797      -71.869911
 H         -77.273453     -206.357452      -70.612648
 H         -75.664169     -206.695786      -71.091179
 H         -74.736626     -203.125046      -68.842918
 H         -73.321877     -203.398727      -69.966667
 H         -75.556694     -206.869019      -68.835564
 H         -76.223465     -205.202759      -68.589569
 H         -73.793053     -205.099411      -68.240738
 H         -73.489716     -205.822525      -69.807388
