20
 generated by VMD
 C         -78.715454     -208.191208      -76.795639
 N         -78.922134     -208.255295      -75.680756
 H         -78.960587     -209.946365      -73.547295
 H         -78.708984     -208.214203      -77.809288
 C         -78.627609     -210.092041      -72.538040
 C         -77.311073     -209.451355      -72.084541
 C         -79.101524     -211.321838      -71.771912
 C         -77.028221     -209.595016      -70.642906
 C         -78.953896     -211.173264      -70.333679
 C         -77.520111     -210.810516      -70.035965
 H         -77.291489     -208.388794      -72.355255
 H         -76.481636     -209.851624      -72.646187
 H         -80.096176     -211.420380      -72.054672
 H         -78.607178     -212.267273      -72.067398
 H         -77.602951     -208.779602      -70.169846
 H         -76.052170     -209.305527      -70.281990
 H         -79.097832     -212.071960      -69.679893
 H         -79.682068     -210.340088      -70.053131
 H         -77.534851     -210.567566      -68.989143
 H         -77.086174     -211.780365      -70.197357
