20
 generated by VMD
 C         -77.312744     -202.946472      -69.392387
 N         -77.723305     -203.749222      -68.654755
 H         -75.449486     -201.920395      -67.406181
 H         -76.947433     -202.079697      -69.893425
 C         -74.914230     -201.517166      -68.213615
 C         -75.182602     -200.043442      -68.531342
 C         -73.949738     -202.325363      -68.952469
 C         -74.713333     -199.553558      -69.903503
 C         -73.138977     -201.648575      -69.932831
 C         -74.172050     -200.709732      -70.734123
 H         -74.631134     -199.443695      -67.753883
 H         -76.215370     -199.881317      -68.450859
 H         -73.257378     -202.770523      -68.293373
 H         -74.356659     -203.241638      -69.387810
 H         -73.926697     -198.766510      -69.750420
 H         -75.465431     -198.988907      -70.548431
 H         -72.676704     -202.437393      -70.543686
 H         -72.392502     -200.961151      -69.549240
 H         -73.616722     -200.232391      -71.627045
 H         -75.000824     -201.249207      -71.132088
