20
 generated by VMD
 C         -38.690208     -107.983368      -37.368465
 N         -38.962494     -107.070770      -38.010170
 H         -40.192474     -108.319794      -34.801582
 H         -38.338131     -108.953018      -37.021667
 C         -40.587605     -109.265274      -34.616573
 C         -39.554638     -110.405853      -34.333149
 C         -41.952225     -109.392540      -34.062958
 C         -39.840870     -111.170105      -33.037975
 C         -42.052242     -110.186172      -32.747581
 C         -41.284988     -111.488007      -32.880360
 H         -38.592484     -109.847458      -34.333206
 H         -39.629684     -111.115303      -35.221661
 H         -42.316593     -108.366592      -33.866711
 H         -42.555641     -109.941612      -34.738178
 H         -39.516357     -110.643852      -32.057865
 H         -39.510689     -112.216850      -33.069176
 H         -43.096786     -110.304008      -32.585590
 H         -41.668606     -109.706696      -31.795763
 H         -41.418911     -112.091324      -32.054371
 H         -41.636669     -112.190025      -33.664131
