20
 generated by VMD
 C          -9.279573      -24.334496        1.448372
 N          -9.533467      -25.293802        1.978757
 H          -7.365555      -23.199749       -0.638737
 H          -8.620852      -22.590176       -1.686220
 C          -7.577583      -22.978733       -1.732773
 C          -7.518463      -24.352917       -2.543441
 C          -6.702498      -21.917679       -2.325228
 C          -7.814116      -24.030909       -4.074079
 C          -6.982971      -21.592968       -3.798487
 C          -6.995717      -22.848070       -4.640871
 H          -8.269575      -25.036741       -2.060995
 H          -6.510665      -24.633892       -2.434435
 H          -6.712346      -20.998814       -1.728007
 H          -5.673811      -22.281147       -2.290142
 H          -8.862727      -23.676361       -4.121663
 H          -7.609407      -24.955078       -4.734025
 H          -6.292075      -20.820858       -4.164198
 H          -8.012527      -21.147348       -3.792830
 H          -7.235551      -22.669867       -5.667171
 H          -5.947765      -23.162390       -4.759220
