20
 generated by VMD
 C         -12.519939      -30.251816       -8.033815
 N         -13.360214      -30.245649       -7.302961
 H         -11.151892      -30.135305       -5.092948
 H         -10.515838      -30.777369       -3.633424
 C         -10.839154      -31.143248       -4.582594
 C          -9.666357      -31.720795       -5.354782
 C         -11.911465      -32.255604       -4.429175
 C          -8.947515      -32.858765       -4.731758
 C         -11.216648      -33.470081       -3.728245
 C         -10.000624      -33.945316       -4.455997
 H          -8.935407      -30.930443       -5.520930
 H         -10.180666      -32.002495       -6.338218
 H         -12.808324      -31.945623       -3.879714
 H         -12.236407      -32.565205       -5.416371
 H          -8.565175      -32.584774       -3.784810
 H          -8.177389      -33.230560       -5.344761
 H         -11.819642      -34.388256       -3.583649
 H         -10.881079      -33.061729       -2.761378
 H          -9.587073      -34.754768       -3.896262
 H         -10.331578      -34.390781       -5.365857
