20
 generated by VMD
 C         -74.229866     -200.234787      -66.358742
 N         -73.318565     -200.926544      -66.355209
 H         -76.419762     -198.135834      -68.884712
 H         -75.227028     -199.893402      -66.544724
 C         -75.409134     -198.104980      -68.566147
 C         -74.847824     -197.335297      -67.539597
 C         -74.510902     -198.995834      -69.393982
 C         -73.643005     -196.513229      -68.259354
 C         -73.186928     -198.372299      -69.793747
 C         -72.534142     -197.420731      -68.758316
 H         -74.459152     -197.944687      -66.803925
 H         -75.575768     -196.603073      -67.069374
 H         -74.342194     -199.899857      -68.818893
 H         -74.957359     -199.293518      -70.375687
 H         -73.235130     -195.758804      -67.570343
 H         -74.125549     -195.954742      -69.073784
 H         -73.451347     -197.769211      -70.680115
 H         -72.542831     -199.108414      -70.110725
 H         -72.137169     -198.083405      -67.917130
 H         -71.775505     -196.872223      -69.116608
