20
 generated by VMD
 C         -67.427864     -192.440262      -67.083237
 N         -68.532684     -192.755310      -66.771400
 H         -69.846367     -190.258163      -65.041626
 H         -66.421829     -192.269379      -67.306702
 C         -70.913765     -190.214401      -65.102539
 C         -71.671501     -190.795502      -66.199989
 C         -71.586464     -189.665329      -63.897957
 C         -72.624313     -191.909454      -65.706314
 C         -73.088966     -189.946457      -64.009552
 C         -73.388222     -191.413803      -64.349083
 H         -70.972099     -191.049484      -66.976624
 H         -72.272964     -190.064789      -66.634239
 H         -71.203026     -190.265076      -63.016022
 H         -71.338104     -188.596390      -63.843109
 H         -71.991951     -192.793457      -65.421005
 H         -73.376549     -192.351547      -66.324562
 H         -73.634193     -189.301163      -64.701691
 H         -73.625885     -189.773468      -63.081779
 H         -73.046272     -192.048172      -63.558884
 H         -74.537628     -191.600723      -64.596977
