20
 generated by VMD
 C         -31.111984      -78.428185      -26.170895
 N         -31.497147      -77.568718      -25.494169
 H         -29.241699      -77.448494      -22.965425
 H         -30.866108      -78.903030      -27.015318
 C         -28.726677      -78.243713      -22.425268
 C         -27.357100      -78.562828      -23.024094
 C         -29.508841      -79.464272      -22.073824
 C         -26.583023      -79.548874      -22.192156
 C         -28.692112      -80.554443      -21.283403
 C         -27.504141      -80.820740      -22.123316
 H         -26.795467      -77.629631      -22.997622
 H         -27.586075      -78.986984      -23.968899
 H         -30.387447      -79.136520      -21.337799
 H         -29.874609      -79.805466      -23.024313
 H         -26.408430      -78.998909      -21.269846
 H         -25.594612      -79.873032      -22.493481
 H         -29.349669      -81.452751      -21.178564
 H         -28.621367      -80.143997      -20.190084
 H         -26.946106      -81.557083      -21.596087
 H         -27.717628      -81.249733      -23.105333
