20
 generated by VMD
 C         -49.581257     -133.044998      -46.792107
 N         -48.641224     -132.780991      -47.294189
 H         -47.983467     -134.536713      -43.737759
 H         -50.359287     -133.616653      -46.318947
 C         -49.053364     -134.824432      -43.887604
 C         -49.492683     -136.164673      -44.300041
 C         -50.145897     -133.964783      -43.254440
 C         -50.111115     -136.940353      -43.081890
 C         -50.750668     -134.659256      -42.108158
 C         -51.282871     -136.194305      -42.423813
 H         -48.642220     -136.753647      -44.741234
 H         -50.199821     -136.070328      -45.089310
 H         -49.746471     -132.911819      -43.088921
 H         -51.011700     -133.891785      -43.980026
 H         -49.369278     -137.175964      -42.297211
 H         -50.504326     -137.894501      -43.330334
 H         -51.600601     -134.050140      -41.704254
 H         -50.003807     -134.633957      -41.301746
 H         -51.588577     -136.489929      -41.428352
 H         -52.047462     -136.014542      -43.202053
