20
 generated by VMD
 C         -58.293438     -167.080551      -55.828087
 N         -57.621128     -167.668686      -55.034794
 H         -61.129196     -166.104584      -54.843430
 H         -58.896561     -166.536774      -56.598541
 C         -61.698505     -165.879410      -55.713486
 C         -62.022163     -166.840500      -56.876690
 C         -62.577206     -164.705795      -55.667088
 C         -63.444813     -167.283859      -56.789169
 C         -64.005157     -165.182098      -55.562393
 C         -64.489677     -166.198318      -56.615089
 H         -61.427563     -167.841263      -56.654388
 H         -61.739944     -166.356049      -57.756252
 H         -62.410969     -164.208160      -54.714397
 H         -62.293064     -164.057053      -56.460831
 H         -63.533234     -167.852966      -55.845100
 H         -63.694672     -167.989105      -57.567947
 H         -64.805031     -164.310364      -55.636154
 H         -64.189781     -165.801758      -54.547871
 H         -65.445221     -166.661072      -56.224724
 H         -64.672562     -165.673904      -57.602688
