20
 generated by VMD
 C          -2.755822       -9.631760        0.105464
 N          -1.902612       -8.928511        0.247120
 H          -2.165588      -11.439558        3.099442
 H          -2.759191      -12.379289        4.259469
 C          -2.835081      -12.250369        3.162876
 C          -2.581376      -13.561095        2.456069
 C          -4.172508      -11.718096        2.779708
 C          -3.651021      -14.533115        2.919905
 C          -5.317728      -12.651180        3.091378
 C          -5.019480      -14.035872        2.524877
 H          -1.519451      -13.852607        2.728749
 H          -2.577087      -13.453641        1.358286
 H          -4.329530      -10.673140        3.243109
 H          -4.067873      -11.526988        1.695254
 H          -3.569010      -14.677621        4.012662
 H          -3.396205      -15.562461        2.510247
 H          -6.301365      -12.350514        2.719944
 H          -5.469828      -12.777711        4.143413
 H          -5.686308      -14.681677        3.061785
 H          -5.227418      -14.165051        1.479507
