20
 generated by VMD
 C         -59.334160     -151.962921      -49.222729
 N         -58.769279     -152.278320      -50.229187
 H         -56.244961     -150.727448      -48.267456
 H         -59.880123     -151.801163      -48.320068
 C         -55.731415     -150.462143      -49.134266
 C         -54.796719     -151.386169      -49.698425
 C         -55.366665     -149.057938      -49.268879
 C         -54.276337     -150.951828      -51.089912
 C         -54.814186     -148.571213      -50.570293
 C         -53.700306     -149.481491      -50.948456
 H         -55.259979     -152.334381      -49.650455
 H         -53.941986     -151.155228      -48.971592
 H         -56.263237     -148.430130      -49.215256
 H         -54.751171     -148.675247      -48.505070
 H         -55.105812     -150.928314      -51.835754
 H         -53.548344     -151.661896      -51.445503
 H         -54.382874     -147.562454      -50.452133
 H         -55.550858     -148.259293      -51.412518
 H         -53.272705     -149.089737      -51.983734
 H         -52.852062     -149.407822      -50.279701
