20
 generated by VMD
 C         -21.979893      -55.348774      -17.512939
 N         -21.399609      -55.818493      -18.468203
 H         -21.381233      -56.775837      -14.133366
 H         -22.745901      -54.976284      -16.846319
 C         -21.145016      -57.865993      -14.150247
 C         -21.385384      -58.780155      -12.947732
 C         -21.028124      -58.297134      -15.491740
 C         -20.842596      -60.170757      -13.271646
 C         -20.245640      -59.742020      -15.664618
 C         -19.741049      -60.337635      -14.302408
 H         -22.400940      -58.745975      -12.625172
 H         -20.807981      -58.383690      -12.088559
 H         -22.048855      -58.374596      -16.003157
 H         -20.451759      -57.517540      -16.012707
 H         -21.727528      -60.674290      -13.737582
 H         -20.682127      -60.834938      -12.373315
 H         -19.570854      -59.693745      -16.512629
 H         -21.016724      -60.381199      -16.089647
 H         -19.330175      -61.290932      -14.387124
 H         -18.982046      -59.649662      -13.969793
