20
 generated by VMD
 C         -48.513355     -135.797928      -46.227184
 N         -47.690838     -136.169922      -45.439461
 H         -51.810982     -135.089722      -46.007252
 H         -49.446209     -135.447693      -46.637043
 C         -51.652958     -135.972870      -45.441376
 C         -52.465084     -137.161346      -45.633595
 C         -51.201782     -135.746841      -43.970078
 C         -51.654945     -138.426270      -45.224895
 C         -50.551613     -137.002869      -43.383228
 C         -51.326908     -138.265045      -43.736599
 H         -52.670837     -137.280411      -46.693230
 H         -53.484882     -136.988235      -45.174778
 H         -50.409866     -134.926376      -43.852203
 H         -52.020508     -135.509430      -43.272526
 H         -50.757294     -138.484741      -45.798046
 H         -52.385807     -139.208328      -45.429470
 H         -50.389725     -136.970566      -42.360638
 H         -49.556667     -137.016891      -43.848488
 H         -50.577614     -139.145905      -43.412231
 H         -52.163239     -138.447113      -43.071228
