20
 generated by VMD
 C         -12.304933      -32.194477       -8.587193
 N         -12.775957      -31.374249       -9.165893
 H         -10.390655      -34.415779       -7.138834
 H         -11.313524      -33.581242       -5.888874
 C         -11.069868      -34.570225       -6.299695
 C         -10.411233      -35.495182       -5.303629
 C         -12.321500      -35.287579       -6.761942
 C         -11.348039      -35.794533       -4.149900
 C         -13.338400      -35.632923       -5.657385
 C         -12.643659      -36.429020       -4.571933
 H          -9.522629      -34.976593       -4.853291
 H          -9.915231      -36.351990       -5.808802
 H         -12.952455      -34.716305       -7.445010
 H         -12.054964      -36.165100       -7.332631
 H         -11.569927      -34.883808       -3.586288
 H         -10.866480      -36.353203       -3.350234
 H         -14.190850      -36.124256       -5.987902
 H         -13.768679      -34.646465       -5.270690
 H         -13.322241      -36.538494       -3.652332
 H         -12.430695      -37.430328       -4.960039
