20
 generated by VMD
 C         -64.329063     -175.178802      -55.937908
 N         -63.462502     -175.449493      -56.662064
 H         -65.445152     -174.041855      -58.319603
 H         -65.088516     -174.813461      -55.283779
 C         -65.056023     -173.079773      -58.663677
 C         -65.606941     -171.693665      -58.217861
 C         -64.282730     -173.172897      -60.031116
 C         -64.404259     -170.780975      -58.316238
 C         -63.146851     -172.181183      -59.992985
 C         -63.639091     -170.894760      -59.548512
 H         -66.074944     -171.749344      -57.179153
 H         -66.433739     -171.572052      -58.858982
 H         -63.888962     -174.165039      -60.222759
 H         -64.969109     -172.991089      -60.897842
 H         -63.778404     -170.746506      -57.330311
 H         -64.900368     -169.744568      -58.419415
 H         -62.622852     -172.081863      -60.975670
 H         -62.393711     -172.591309      -59.365669
 H         -62.658066     -170.365173      -59.395546
 H         -64.157173     -170.369141      -60.342438
