20
 generated by VMD
 C         -69.134094     -194.205246      -64.599068
 N         -68.400375     -193.954391      -65.461868
 H         -71.191635     -194.206345      -67.655174
 H         -69.647751     -194.390518      -63.686893
 C         -71.872536     -193.486465      -67.224312
 C         -71.541283     -192.161697      -66.596283
 C         -73.308662     -193.994232      -67.245903
 C         -72.559586     -191.630157      -65.582047
 C         -74.389839     -192.984909      -66.808685
 C         -73.917252     -192.373154      -65.418198
 H         -71.290329     -191.401489      -67.497368
 H         -70.621483     -192.391144      -66.065758
 H         -73.492157     -194.295013      -68.347252
 H         -73.487968     -194.865311      -66.486603
 H         -72.714729     -190.637726      -65.955727
 H         -72.014801     -191.567505      -64.619385
 H         -75.339180     -193.630646      -66.717537
 H         -74.600418     -192.171677      -67.497169
 H         -74.686844     -191.666611      -64.924034
 H         -73.758553     -193.239120      -64.764046
