20
 generated by VMD
 C         -50.366817     -129.406586      -43.534225
 N         -50.869278     -129.919403      -44.470329
 H         -49.071140     -127.953506      -41.008682
 H         -49.802067     -128.919907      -42.725704
 C         -48.067345     -128.266953      -41.162567
 C         -47.772503     -129.790604      -41.005283
 C         -46.990555     -127.146645      -40.890717
 C         -46.420429     -130.029480      -41.660858
 C         -45.637772     -127.621414      -41.282265
 C         -45.394524     -129.118484      -41.147442
 H         -48.686947     -130.326447      -41.350498
 H         -47.718712     -130.034836      -39.931038
 H         -47.357624     -126.287277      -41.417103
 H         -47.083000     -126.811584      -39.789616
 H         -46.440720     -130.064560      -42.726013
 H         -46.150673     -131.049133      -41.418224
 H         -44.911339     -127.017151      -40.742657
 H         -45.484993     -127.484512      -42.330814
 H         -44.534462     -129.349930      -41.774796
 H         -45.267193     -129.252472      -40.027237
