20
 generated by VMD
 C         -31.712189      -78.706429      -26.412279
 N         -31.102037      -77.981552      -27.087854
 H         -29.059883      -80.177666      -24.711287
 H         -32.157696      -79.439194      -25.734798
 C         -28.896599      -80.860382      -23.936588
 C         -27.659258      -80.814941      -23.309061
 C         -29.942171      -81.893234      -23.635691
 C         -27.760361      -81.134483      -21.806606
 C         -30.003275      -82.143608      -22.117939
 C         -28.664211      -82.315025      -21.431173
 H         -27.192175      -79.817268      -23.359928
 H         -26.845427      -81.397659      -23.792820
 H         -30.846731      -81.458092      -24.055082
 H         -29.759077      -82.897598      -24.154381
 H         -28.186937      -80.266479      -21.411064
 H         -26.711182      -81.266647      -21.416870
 H         -30.759375      -83.040703      -22.003250
 H         -30.412468      -81.334694      -21.543835
 H         -28.787117      -82.420395      -20.332924
 H         -28.213280      -83.205887      -21.896006
