20
 generated by VMD
 C         -31.689177      -93.196495      -26.068287
 N         -32.229836      -93.959206      -25.427547
 H         -33.588116      -94.290642      -27.890978
 H         -31.342112      -92.380966      -26.723007
 C         -34.029697      -93.564056      -28.502672
 C         -35.421967      -93.259926      -28.166286
 C         -33.468159      -92.934731      -29.680841
 C         -35.657803      -91.671677      -28.131628
 C         -33.685604      -91.433037      -29.765343
 C         -35.117249      -90.969284      -29.346731
 H         -35.700260      -93.640816      -27.230497
 H         -36.148129      -93.536995      -28.955473
 H         -32.388596      -93.017532      -29.756302
 H         -33.861919      -93.434547      -30.565004
 H         -35.078651      -91.435287      -27.260599
 H         -36.676670      -91.475456      -27.860472
 H         -33.553654      -91.120522      -30.759626
 H         -32.954632      -90.895172      -29.101398
 H         -35.324402      -89.889969      -29.420345
 H         -35.931118      -91.372490      -30.055025
