20
 generated by VMD
 C          -1.441289      -17.041767        2.099540
 N          -1.574161      -17.389109        3.151973
 H          -5.159352      -17.003086        0.818244
 H          -5.004755      -18.102764       -0.550954
 C          -5.810851      -17.578135        0.042160
 C          -6.463078      -16.715258       -0.994080
 C          -6.783182      -18.495768        0.725830
 C          -7.022774      -17.527187       -2.121075
 C          -7.564092      -19.314678       -0.366274
 C          -8.110273      -18.492176       -1.595549
 H          -5.763020      -15.951202       -1.447558
 H          -7.194988      -16.128119       -0.483696
 H          -6.286437      -19.120237        1.398789
 H          -7.427980      -17.967863        1.378649
 H          -6.197892      -18.148476       -2.634900
 H          -7.453568      -16.853012       -2.870347
 H          -8.364429      -19.893326        0.151457
 H          -6.882461      -20.046345       -0.780847
 H          -8.291292      -19.189278       -2.406039
 H          -9.026262      -17.901110       -1.391345
