20
 generated by VMD
 C         -30.477465      -93.956741      -25.448029
 N         -29.469961      -93.656151      -24.996595
 H         -33.752911      -92.624107      -26.831030
 H         -31.558750      -94.142036      -25.805191
 C         -34.265316      -92.017937      -27.560703
 C         -35.707958      -92.153336      -27.793839
 C         -33.401428      -91.387535      -28.640259
 C         -36.389469      -91.500313      -29.023306
 C         -34.188828      -90.479851      -29.643442
 C         -35.449791      -91.005646      -30.118162
 H         -36.271873      -92.097305      -26.850695
 H         -35.953175      -93.137711      -28.085945
 H         -32.577320      -90.761581      -28.312553
 H         -33.050385      -92.223564      -29.263535
 H         -36.780010      -90.577156      -28.522547
 H         -37.244972      -92.075089      -29.310089
 H         -33.529903      -90.245636      -30.504654
 H         -34.368660      -89.498817      -29.102343
 H         -35.967503      -90.217476      -30.633289
 H         -35.520649      -91.810280      -30.791372
