20
 generated by VMD
 C         -68.113220     -179.511917      -58.736511
 N         -67.930252     -179.857819      -57.639694
 H         -66.478401     -176.372986      -59.401455
 H         -68.178993     -179.225296      -59.776676
 C         -65.712814     -175.832489      -59.856968
 C         -66.068100     -174.812073      -60.899746
 C         -64.300606     -176.285721      -59.507717
 C         -65.146530     -173.691696      -60.686375
 C         -63.323402     -175.047363      -59.501438
 C         -63.659668     -174.053482      -60.634659
 H         -67.110992     -174.755493      -60.868954
 H         -65.712318     -175.193146      -61.810017
 H         -64.216118     -176.643158      -58.510803
 H         -63.815205     -177.007706      -60.198792
 H         -65.395988     -173.210724      -59.695568
 H         -65.412971     -173.000366      -61.488052
 H         -62.262222     -175.459015      -59.586998
 H         -63.412231     -174.600128      -58.510391
 H         -62.873169     -173.346115      -60.709221
 H         -63.480461     -174.631836      -61.551876
