20
 generated by VMD
 C         -55.753700     -149.049759      -45.627117
 N         -55.248997     -149.682190      -44.826149
 H         -54.408688     -148.210648      -48.229073
 H         -56.081074     -148.485825      -46.502419
 C         -54.277885     -147.415878      -48.895676
 C         -53.124210     -147.274414      -49.870682
 C         -54.906681     -146.043900      -48.473557
 C         -53.501125     -146.519608      -51.131031
 C         -55.212349     -145.074799      -49.769157
 C         -53.992119     -144.981934      -50.730289
 H         -52.618900     -148.233627      -50.016422
 H         -52.300735     -146.739349      -49.221622
 H         -55.833519     -146.253143      -47.941200
 H         -54.185711     -145.451935      -47.751366
 H         -54.154068     -147.167389      -51.813858
 H         -52.506260     -146.481216      -51.641743
 H         -55.541241     -143.982346      -49.368130
 H         -55.941311     -145.557755      -50.384613
 H         -54.328156     -144.500793      -51.702587
 H         -53.108898     -144.501160      -50.371750
