20
 generated by VMD
 C         -50.667179     -128.653671      -42.150505
 N         -51.753651     -128.297882      -41.822876
 H         -47.930126     -127.850487      -40.315968
 H         -49.588749     -128.727814      -42.352798
 C         -46.987415     -127.441422      -40.747772
 C         -45.755375     -128.134186      -40.182865
 C         -46.972672     -126.070755      -41.241043
 C         -44.391872     -127.759476      -40.877926
 C         -45.663113     -125.748451      -41.981506
 C         -44.459068     -126.164856      -41.085449
 H         -45.861664     -129.237610      -40.176414
 H         -45.591694     -127.820580      -39.139683
 H         -47.672535     -125.817650      -41.988449
 H         -46.901783     -125.396568      -40.322105
 H         -44.339024     -128.266251      -41.853466
 H         -43.639500     -127.885811      -40.146690
 H         -45.647339     -124.624062      -42.133690
 H         -45.545517     -126.216507      -42.988380
 H         -43.482777     -125.707047      -41.381012
 H         -44.603107     -125.658279      -40.115154
