20
 generated by VMD
 C         -13.844784      -45.495300       -5.603275
 N         -14.328198      -45.291260       -6.576548
 H         -14.977807      -44.212196       -9.167809
 H         -14.431520      -44.025368      -10.893804
 C         -15.312993      -44.210590      -10.274455
 C         -16.441299      -43.224876      -10.513706
 C         -15.831554      -45.638481      -10.605007
 C         -17.033281      -43.317646      -11.959138
 C         -16.209324      -45.812393      -12.058798
 C         -17.324923      -44.800293      -12.353682
 H         -16.112906      -42.184944      -10.383467
 H         -17.194258      -43.452206       -9.797460
 H         -15.014745      -46.298431      -10.286108
 H         -16.698326      -45.892712       -9.971234
 H         -16.315975      -42.787258      -12.615877
 H         -17.967091      -42.746437      -11.927666
 H         -16.579346      -46.861164      -12.299018
 H         -15.395230      -45.527374      -12.671211
 H         -17.584536      -45.018051      -13.442438
 H         -18.268505      -45.090054      -11.819852
