20
 generated by VMD
 C         -22.825605      -52.443989      -12.113244
 N         -23.335938      -52.466663      -11.040586
 H         -19.930265      -52.874458      -13.794459
 H         -21.976768      -52.242561      -12.898685
 C         -18.861921      -53.003654      -13.866352
 C         -18.105583      -52.088646      -14.764599
 C         -18.224194      -54.060833      -13.078206
 C         -16.619392      -52.127155      -14.563271
 C         -17.067921      -53.455013      -12.262929
 C         -16.265825      -52.398247      -13.106997
 H         -18.382660      -51.067383      -14.600715
 H         -18.436186      -52.331974      -15.801194
 H         -19.016016      -54.501305      -12.393067
 H         -17.838173      -54.862556      -13.730971
 H         -16.195724      -51.141621      -14.833763
 H         -16.281427      -52.846622      -15.314243
 H         -16.447876      -54.279423      -12.013385
 H         -17.329735      -52.923065      -11.274306
 H         -16.278151      -51.477142      -12.549999
 H         -15.279220      -52.864521      -13.151304
