20
 generated by VMD
 C         -50.034168     -142.937073      -45.477142
 N         -48.912136     -143.175125      -45.300385
 H         -51.831715     -140.000565      -45.735783
 H         -51.080360     -142.604935      -45.661694
 C         -52.666744     -140.479431      -46.254902
 C         -52.032627     -140.855453      -47.561970
 C         -54.148937     -140.528748      -45.981186
 C         -52.795387     -142.056122      -48.189972
 C         -54.775646     -141.762009      -46.602692
 C         -54.364239     -141.862228      -48.125019
 H         -50.996662     -141.182724      -47.553738
 H         -52.199562     -139.957504      -48.207840
 H         -54.158875     -140.511017      -44.940231
 H         -54.676132     -139.742188      -46.310822
 H         -52.556797     -143.000702      -47.490414
 H         -52.396229     -142.272797      -49.255932
 H         -55.870159     -141.615479      -46.390141
 H         -54.530880     -142.829758      -46.290665
 H         -54.874245     -142.816055      -48.546417
 H         -54.688477     -140.912369      -48.679180
