20
 generated by VMD
 C          -6.834374      -23.314327        3.289209
 N          -6.578346      -22.687883        2.417776
 H          -7.434152      -22.252655       -0.410485
 H          -8.740604      -22.159039       -1.483280
 C          -7.731018      -21.940050       -1.377326
 C          -6.818677      -22.730215       -2.416720
 C          -7.523993      -20.414494       -1.513808
 C          -7.026176      -22.194893       -3.867886
 C          -7.652142      -19.937611       -2.935227
 C          -6.838629      -20.664930       -3.993245
 H          -7.120621      -23.755491       -2.305824
 H          -5.704818      -22.501604       -2.133608
 H          -8.158611      -19.779533       -0.798206
 H          -6.510821      -20.256245       -1.083561
 H          -8.028544      -22.366785       -4.194225
 H          -6.470395      -22.760439       -4.610353
 H          -7.521868      -18.849302       -3.091316
 H          -8.736650      -20.009117       -3.139180
 H          -7.013817      -20.374001       -5.005795
 H          -5.830825      -20.412088       -3.744885
