20
 generated by VMD
 C         -57.951099     -161.930038      -56.230717
 N         -57.151936     -162.055069      -57.041828
 H         -59.565639     -164.196716      -55.534237
 H         -58.655708     -161.781693      -55.419113
 C         -60.410656     -164.463074      -54.874317
 C         -60.450844     -164.107422      -53.450577
 C         -61.760941     -164.575134      -55.554623
 C         -61.696327     -163.142029      -53.048645
 C         -62.788383     -163.371475      -55.336216
 C         -63.035599     -163.443680      -53.773083
 H         -59.537113     -163.609085      -53.098160
 H         -60.569122     -164.992584      -52.873016
 H         -61.687386     -164.767334      -56.663136
 H         -62.127193     -165.519287      -55.105526
 H         -61.395992     -162.152863      -53.342323
 H         -61.843010     -162.947021      -51.939793
 H         -63.675014     -163.723206      -55.933537
 H         -62.357624     -162.461151      -55.586239
 H         -63.789894     -162.776245      -53.582859
 H         -63.517860     -164.358780      -53.522041
