20
 generated by VMD
 C         -63.375271     -174.483505      -56.621868
 N         -62.530369     -175.186111      -56.228348
 H         -66.419289     -173.225006      -58.253036
 H         -64.234398     -173.881699      -56.981579
 C         -65.654778     -172.589905      -58.511192
 C         -65.809410     -171.048798      -58.378235
 C         -64.706734     -173.016281      -59.736713
 C         -64.355652     -170.443359      -58.209209
 C         -63.319038     -172.296539      -59.558498
 C         -63.236553     -170.833893      -59.165173
 H         -66.456833     -170.587616      -57.512482
 H         -66.183975     -170.728470      -59.293556
 H         -64.513504     -174.038132      -59.684669
 H         -65.138474     -172.577835      -60.604340
 H         -64.019165     -170.631165      -57.235065
 H         -64.385933     -169.381485      -58.252666
 H         -62.742199     -172.401459      -60.507999
 H         -62.641750     -172.799072      -58.880253
 H         -62.321255     -170.684708      -58.570560
 H         -63.223473     -170.153702      -59.965031
