20
 generated by VMD
 C         -39.937138     -100.332062      -30.454081
 N         -40.677876     -100.311417      -31.350298
 H         -37.187061     -102.230682      -30.622089
 H         -39.311909     -100.328186      -29.575329
 C         -36.545601     -101.501572      -30.920198
 C         -36.678291     -100.941193      -32.272049
 C         -35.362186     -101.319366      -30.048416
 C         -36.113316      -99.598000      -32.267559
 C         -35.001411      -99.905327      -30.060282
 C         -34.949013      -99.288246      -31.421255
 H         -37.746685     -100.821472      -32.515957
 H         -36.272984     -101.498108      -33.089573
 H         -35.615513     -101.660851      -28.989967
 H         -34.515335     -101.960861      -30.384583
 H         -36.878590      -98.817215      -32.075081
 H         -35.794769      -99.334427      -33.354462
 H         -34.043449      -99.804016      -29.510996
 H         -35.729443      -99.409111      -29.441252
 H         -34.805504      -98.226242      -31.232195
 H         -34.056583      -99.558624      -32.012234
