20
 generated by VMD
 C         -47.868874     -139.624084      -46.050327
 N         -46.729012     -139.270569      -46.029888
 H         -50.933983     -139.047043      -44.738922
 H         -48.779652     -140.213486      -46.066250
 C         -51.882336     -139.130615      -45.287598
 C         -51.895702     -139.399673      -46.735374
 C         -53.181671     -138.781097      -44.591862
 C         -53.038868     -140.391541      -47.177059
 C         -54.233990     -139.939651      -44.846996
 C         -54.345001     -140.073914      -46.466118
 H         -50.991879     -139.812714      -47.078629
 H         -52.095501     -138.419830      -47.129288
 H         -53.052094     -138.715073      -43.487686
 H         -53.400810     -137.699692      -44.909325
 H         -52.809319     -141.412949      -46.928848
 H         -53.161972     -140.284622      -48.253971
 H         -55.307220     -139.600555      -44.560322
 H         -53.877319     -140.756088      -44.271420
 H         -55.099991     -140.682602      -46.772041
 H         -54.910385     -139.210739      -46.802109
