20
 generated by VMD
 C         -58.536289     -161.586975      -56.260269
 N         -58.209705     -160.480194      -56.228436
 H         -59.815605     -164.781937      -55.644676
 H         -58.784927     -162.620529      -56.315224
 C         -60.287815     -164.425491      -54.782520
 C         -59.705296     -163.539398      -53.704433
 C         -61.793694     -164.444107      -54.877903
 C         -60.495556     -162.192169      -53.214714
 C         -62.332642     -162.977859      -54.842770
 C         -62.058342     -162.297943      -53.436924
 H         -58.614300     -163.500275      -53.618618
 H         -59.753429     -164.282303      -52.830975
 H         -62.077301     -164.925995      -55.744415
 H         -62.251537     -165.034393      -54.023899
 H         -60.162792     -161.385025      -53.946220
 H         -60.390171     -161.891861      -52.205006
 H         -63.401424     -162.897430      -55.034168
 H         -61.817871     -162.401321      -55.711262
 H         -62.469418     -161.311661      -53.503304
 H         -62.488987     -162.925858      -52.672813
