20
 generated by VMD
 C         -60.968594     -155.068314      -53.209084
 N         -61.092209     -154.365067      -52.237671
 H         -58.089615     -154.180634      -52.552452
 H         -60.970303     -155.698425      -54.137417
 C         -57.179768     -154.253387      -51.948975
 C         -57.384087     -154.167938      -50.519321
 C         -55.831863     -153.849548      -52.492748
 C         -56.276417     -154.560974      -49.651768
 C         -54.629227     -154.175919      -51.576656
 C         -54.918510     -153.854706      -50.114788
 H         -58.194252     -154.822647      -50.385559
 H         -57.587139     -153.176529      -50.164509
 H         -55.826725     -154.412064      -53.390587
 H         -55.856918     -152.812485      -52.886547
 H         -56.057137     -155.629333      -49.659569
 H         -56.341625     -154.360733      -48.550339
 H         -53.741817     -153.701675      -51.830338
 H         -54.434227     -155.281784      -51.741940
 H         -54.117455     -154.278503      -49.390957
 H         -54.964455     -152.769043      -50.099323
