20
 generated by VMD
 C         -31.023296      -78.438988      -25.911751
 N         -31.362421      -77.529137      -25.288645
 H         -29.449663      -77.392960      -23.122782
 H         -30.761244      -79.015076      -26.822908
 C         -28.836493      -78.219292      -22.679035
 C         -27.386395      -78.335030      -22.924517
 C         -29.540142      -79.383041      -22.009735
 C         -26.535400      -79.524323      -22.385134
 C         -28.687582      -80.382210      -21.307785
 C         -27.382381      -80.716400      -22.033146
 H         -26.941141      -77.389877      -22.670464
 H         -27.265444      -78.372429      -24.023342
 H         -30.176275      -78.828659      -21.385447
 H         -30.120831      -79.878517      -22.793715
 H         -26.181946      -79.298965      -21.359522
 H         -25.672390      -79.697884      -23.001696
 H         -29.352316      -81.229370      -21.098164
 H         -28.458536      -79.994675      -20.374035
 H         -26.817848      -81.426865      -21.375252
 H         -27.609455      -81.244896      -22.920578
