20
 generated by VMD
 C         -12.680223      -30.143873       -8.288366
 N         -13.427948      -30.737347       -7.704301
 H         -10.984366      -30.473803       -5.162174
 H         -10.730264      -31.111908       -3.525187
 C         -10.807809      -31.465195       -4.587237
 C          -9.507209      -32.019585       -5.125546
 C         -11.923562      -32.532284       -4.795382
 C          -9.202702      -33.346008       -4.472431
 C         -11.615664      -33.845966       -4.095554
 C         -10.308688      -34.357319       -4.546248
 H          -8.603115      -31.463959       -5.002038
 H          -9.599009      -32.225048       -6.216257
 H         -12.914119      -32.194466       -4.517521
 H         -11.997286      -32.706654       -5.874485
 H          -8.963591      -33.151325       -3.463064
 H          -8.313744      -33.711037       -4.908906
 H         -12.430183      -34.595108       -4.296918
 H         -11.624591      -33.627460       -3.068000
 H         -10.062959      -35.296246       -3.967540
 H         -10.375613      -34.752434       -5.544233
