20
 generated by VMD
 C         -40.647095      -99.994057      -29.580597
 N         -40.158508     -100.199509      -28.536619
 H         -37.373306      -99.791550      -30.509888
 H         -40.993389      -99.857506      -30.667091
 C         -36.394226      -99.384789      -30.777185
 C         -35.899086      -99.262909      -32.234173
 C         -35.341583      -99.129021      -29.673084
 C         -34.809216      -98.217255      -32.494572
 C         -34.329578      -98.084000      -30.051163
 C         -33.762394      -98.389626      -31.371582
 H         -36.680401      -99.017426      -32.977852
 H         -35.610912     -100.306671      -32.346748
 H         -35.912426      -98.940071      -28.747343
 H         -34.826263     -100.057442      -29.477547
 H         -35.196682      -97.215088      -32.292019
 H         -34.190159      -98.220039      -33.417976
 H         -33.507156      -97.877441      -29.370255
 H         -34.814373      -97.109863      -29.980991
 H         -32.864559      -97.716949      -31.493668
 H         -33.364285      -99.402435      -31.301493
