20
 generated by VMD
 C         -63.337620     -174.533340      -56.505005
 N         -62.304581     -174.906326      -56.094463
 H         -66.483597     -172.957031      -58.347763
 H         -64.328201     -174.158051      -56.778564
 C         -65.621117     -172.363678      -58.588112
 C         -65.574036     -170.994278      -58.136772
 C         -64.693550     -172.879028      -59.575912
 C         -64.204048     -170.400284      -58.087738
 C         -63.303867     -172.103165      -59.552986
 C         -63.463665     -170.566177      -59.466564
 H         -66.046753     -171.185440      -57.137337
 H         -66.297401     -170.437363      -58.759518
 H         -64.576027     -174.002625      -59.285179
 H         -65.220070     -172.687973      -60.572521
 H         -63.541458     -170.761795      -57.350891
 H         -64.323692     -169.376160      -57.874168
 H         -62.760952     -172.253265      -60.503944
 H         -62.633240     -172.466049      -58.827549
 H         -62.523994     -169.965179      -59.446762
 H         -64.129898     -170.189011      -60.268585
