20
 generated by VMD
 C         -23.494730      -53.098892      -12.925056
 N         -23.122898      -52.603745      -13.970798
 H         -20.509624      -54.815838      -14.571291
 H         -23.683184      -53.406471      -12.047123
 C         -19.407278      -54.683319      -14.089469
 C         -18.929472      -53.287392      -14.104398
 C         -18.499388      -55.875401      -13.923105
 C         -17.833839      -53.072872      -13.069346
 C         -17.153130      -55.520496      -13.289905
 C         -16.678917      -54.036839      -13.399187
 H         -19.709475      -52.549053      -13.836783
 H         -18.640816      -53.114777      -15.130777
 H         -18.998564      -56.676895      -13.287686
 H         -18.278875      -56.400112      -14.890405
 H         -18.154325      -53.235889      -12.029572
 H         -17.516020      -52.007095      -13.119019
 H         -16.275719      -56.135006      -13.630831
 H         -17.241758      -55.719669      -12.212721
 H         -15.866323      -53.930779      -12.734228
 H         -16.210295      -53.817871      -14.359170
