20
 generated by VMD
 C         -67.922333     -185.166412      -68.016914
 N         -67.587959     -185.660950      -67.023834
 H         -69.647171     -185.616486      -64.478767
 H         -68.197884     -184.820404      -69.030190
 C         -69.852592     -185.943817      -63.519890
 C         -70.902725     -185.480911      -62.613102
 C         -69.104469     -187.149353      -63.131706
 C         -70.279686     -185.213715      -61.313457
 C         -68.668434     -187.199783      -61.623196
 C         -69.636551     -186.449127      -60.638805
 H         -71.651810     -186.264435      -62.647816
 H         -71.544609     -184.723206      -63.018837
 H         -69.659515     -188.044418      -63.427883
 H         -68.251404     -187.348221      -63.746780
 H         -71.144066     -184.952347      -60.681522
 H         -69.726906     -184.283142      -61.296715
 H         -67.691605     -186.796432      -61.572060
 H         -68.498070     -188.176422      -61.148842
 H         -70.451714     -187.046783      -60.487255
 H         -69.165817     -186.402527      -59.674049
