20
 generated by VMD
 C         -13.295885      -44.750557       -6.349306
 N         -14.186258      -44.230549       -5.943444
 H         -15.023755      -44.679634       -8.972992
 H         -14.315389      -43.889587      -10.341372
 C         -15.289618      -44.400467      -10.001825
 C         -16.424212      -43.329731      -10.024639
 C         -15.610044      -45.658123      -10.842699
 C         -16.933231      -43.050381      -11.422233
 C         -16.123035      -45.227154      -12.203527
 C         -17.356266      -44.262615      -12.202233
 H         -16.103277      -42.481380       -9.461368
 H         -17.344021      -43.622459       -9.499602
 H         -14.760518      -46.387928      -10.896583
 H         -16.325127      -46.277233      -10.219636
 H         -16.207304      -42.513790      -12.034144
 H         -17.819595      -42.396782      -11.332458
 H         -16.296459      -46.080212      -12.799634
 H         -15.302486      -44.699589      -12.756002
 H         -17.659737      -43.907860      -13.200625
 H         -18.226318      -44.871284      -11.766499
