20
 generated by VMD
 C          -6.939996      -22.914757        2.287676
 N          -6.053212      -22.759888        2.933023
 H          -6.105785      -20.538780       -0.159799
 H          -7.484677      -21.335079       -0.415741
 C          -6.757630      -20.803864       -0.988875
 C          -6.146770      -21.767296       -2.016726
 C          -7.224712      -19.544712       -1.700030
 C          -7.066438      -22.110479       -3.191397
 C          -8.129694      -19.900579       -2.834250
 C          -7.511179      -20.812565       -3.818482
 H          -5.898093      -22.765865       -1.531426
 H          -5.255324      -21.278528       -2.442178
 H          -7.623904      -18.882607       -0.937834
 H          -6.306950      -19.000340       -2.126493
 H          -7.894250      -22.763737       -2.855749
 H          -6.514539      -22.692558       -3.931177
 H          -8.446515      -18.958588       -3.258906
 H          -9.078359      -20.315023       -2.503073
 H          -8.311242      -21.047718       -4.510350
 H          -6.639294      -20.444613       -4.352833
