20
 generated by VMD
 C         -41.308773     -119.317299      -34.645355
 N         -40.500954     -119.403442      -35.489700
 H         -43.501461     -117.963310      -36.415390
 H         -42.012070     -118.949730      -33.947132
 C         -43.873676     -117.720497      -37.446453
 C         -42.947659     -117.926422      -38.550137
 C         -45.245163     -117.068489      -37.596272
 C         -43.679882     -118.513306      -39.781204
 C         -45.957378     -117.693268      -38.770206
 C         -45.023815     -117.725273      -40.020432
 H         -42.154831     -118.691986      -38.376965
 H         -42.578003     -116.840309      -38.736328
 H         -45.767338     -117.239326      -36.587719
 H         -45.137428     -116.026581      -37.678955
 H         -43.925537     -119.578270      -39.551640
 H         -43.126366     -118.477898      -40.807514
 H         -46.808079     -117.080574      -39.003971
 H         -46.451557     -118.580940      -38.410969
 H         -45.599216     -117.987137      -40.943741
 H         -44.746071     -116.757858      -40.207928
