20
 generated by VMD
 C         -59.470066     -152.174377      -50.731129
 N         -59.422333     -153.056976      -50.045887
 H         -56.742657     -151.113220      -48.531887
 H         -59.424488     -151.411926      -51.451283
 C         -55.981564     -150.969391      -49.278637
 C         -55.195873     -152.104370      -49.834953
 C         -55.475792     -149.529938      -49.214043
 C         -54.510246     -151.615738      -51.142029
 C         -54.747318     -149.111404      -50.579010
 C         -53.763248     -150.175156      -51.058983
 H         -55.783459     -153.055084      -49.907951
 H         -54.340622     -152.316605      -49.121914
 H         -56.390396     -148.932083      -49.234821
 H         -54.915146     -149.158096      -48.312386
 H         -55.202549     -151.602371      -52.004917
 H         -53.801647     -152.430298      -51.417992
 H         -54.219402     -148.206711      -50.479012
 H         -55.435024     -149.039154      -51.423328
 H         -53.355320     -149.950485      -52.081745
 H         -53.020325     -150.254318      -50.237034
