20
 generated by VMD
 C         -80.065979     -205.456512      -71.517868
 N         -80.067421     -206.654343      -71.540405
 H         -77.261169     -203.147705      -70.598831
 H         -80.110512     -204.397171      -71.638741
 C         -76.242332     -203.436569      -70.274925
 C         -75.169815     -202.467255      -70.576393
 C         -76.076653     -204.935944      -70.143311
 C         -73.789177     -203.114197      -70.406754
 C         -74.907524     -205.150177      -69.127678
 C         -73.690414     -204.389679      -69.587555
 H         -75.210388     -201.470566      -70.161552
 H         -75.177986     -202.243942      -71.654175
 H         -77.092163     -205.361877      -69.957687
 H         -75.669914     -205.439377      -71.068916
 H         -73.194641     -202.292892      -70.005775
 H         -73.394257     -203.230347      -71.453308
 H         -74.670807     -206.162567      -68.956337
 H         -75.190262     -204.687790      -68.109894
 H         -72.890793     -204.311783      -68.821159
 H         -73.191887     -205.096268      -70.354721
