20
 generated by VMD
 C         -78.716179     -208.210480      -76.812172
 N         -78.941528     -208.272705      -75.671455
 H         -78.900726     -209.817123      -73.566895
 H         -78.649109     -208.258224      -77.957306
 C         -78.610985     -210.052933      -72.529472
 C         -77.328445     -209.464661      -72.079788
 C         -79.071892     -211.338165      -71.823708
 C         -77.061615     -209.609818      -70.644119
 C         -78.964577     -211.128738      -70.362518
 C         -77.547157     -210.874527      -69.981522
 H         -77.303123     -208.406891      -72.415268
 H         -76.503815     -209.923721      -72.748466
 H         -80.203735     -211.431992      -72.064369
 H         -78.581482     -212.294937      -72.009361
 H         -77.524673     -208.729630      -70.158508
 H         -76.016441     -209.440262      -70.311546
 H         -79.136520     -212.063385      -69.760254
 H         -79.634888     -210.393204      -70.042801
 H         -77.439766     -210.697006      -68.861732
 H         -76.944618     -211.817154      -70.137505
