20
 generated by VMD
 C         -27.600107      -81.358887      -26.994076
 N         -28.380833      -81.921722      -27.668070
 H         -30.324060      -83.585724      -25.798916
 H         -26.711592      -80.848717      -26.493694
 C         -30.890877      -84.314354      -25.206423
 C         -30.585625      -84.191757      -23.724188
 C         -31.753311      -85.424660      -25.813511
 C         -31.858212      -84.702690      -22.894203
 C         -32.749462      -86.031311      -24.739294
 C         -32.330345      -86.015656      -23.307739
 H         -30.287537      -83.221367      -23.404621
 H         -29.664013      -84.737923      -23.412580
 H         -32.258907      -85.280373      -26.721188
 H         -30.926510      -86.081772      -26.007315
 H         -32.606880      -83.968246      -22.894741
 H         -31.552738      -84.944138      -21.808594
 H         -32.927204      -87.166237      -24.878819
 H         -33.695862      -85.521194      -24.868711
 H         -33.182774      -86.277596      -22.667381
 H         -31.497383      -86.796158      -23.089272
