20
 generated by VMD
 C         -37.419380      -98.531380      -27.491997
 N         -37.697578      -98.345589      -26.387918
 H         -36.821129      -96.466476      -29.385162
 H         -37.280792      -98.619583      -28.591309
 C         -35.797764      -96.588120      -29.629124
 C         -35.365162      -97.318825      -30.850418
 C         -34.644341      -95.724236      -29.040180
 C         -34.879738      -96.379036      -31.954285
 C         -34.017937      -94.735252      -30.168438
 C         -33.888073      -95.300400      -31.531998
 H         -36.179760      -98.022057      -31.181002
 H         -34.519730      -97.861168      -30.518923
 H         -35.031574      -94.977753      -28.270243
 H         -33.836105      -96.340668      -28.560194
 H         -35.834648      -95.857239      -32.288921
 H         -34.513100      -96.922302      -32.852791
 H         -33.019138      -94.447098      -29.929008
 H         -34.685112      -93.809578      -30.249393
 H         -34.013649      -94.290634      -32.236122
 H         -32.908195      -95.618103      -31.695044
