20
 generated by VMD
 C         -33.434967      -96.595337      -25.356665
 N         -32.667160      -96.779663      -24.484962
 H         -34.564903      -93.830299      -27.451382
 H         -34.136757      -96.474594      -26.133572
 C         -34.745800      -93.496178      -28.440075
 C         -36.028065      -93.583397      -29.099810
 C         -33.581650      -93.198151      -29.309711
 C         -36.231102      -92.840683      -30.430218
 C         -33.817768      -92.290688      -30.528597
 C         -34.973927      -92.979263      -31.377501
 H         -36.873814      -93.386925      -28.355801
 H         -36.060097      -94.619766      -29.450314
 H         -32.797138      -92.661293      -28.706877
 H         -33.225658      -94.186539      -29.627687
 H         -36.347164      -91.736839      -30.324970
 H         -37.143269      -93.176971      -31.012751
 H         -32.888958      -92.257332      -31.186636
 H         -33.901222      -91.205605      -30.257423
 H         -35.188004      -92.598465      -32.332516
 H         -34.558460      -94.046890      -31.450714
