20
 generated by VMD
 C          -7.466776      -23.486593        1.844022
 N          -7.537443      -22.892235        2.787392
 H          -9.000268      -23.465370       -1.603258
 H          -9.367086      -22.223436       -2.798409
 C          -8.507573      -22.807863       -2.325379
 C          -7.715090      -23.572685       -3.280516
 C          -7.856287      -21.726152       -1.560976
 C          -6.934355      -22.746929       -4.252926
 C          -7.089255      -20.847549       -2.532183
 C          -6.198820      -21.653036       -3.478746
 H          -8.269614      -24.336901       -3.853823
 H          -7.091833      -24.208241       -2.632994
 H          -8.616347      -21.212900       -0.992642
 H          -7.071680      -22.110369       -0.928136
 H          -7.719450      -22.189259       -4.882653
 H          -6.176983      -23.334255       -4.820510
 H          -6.442016      -20.138823       -2.002858
 H          -7.792360      -20.388048       -3.225339
 H          -5.718193      -20.970623       -4.194650
 H          -5.417973      -22.130241       -2.891008
