20
 generated by VMD
 C         -68.010048     -185.184921      -67.913940
 N         -67.588692     -185.740082      -66.982430
 H         -69.504532     -185.333847      -64.458199
 H         -68.438431     -184.579010      -68.711929
 C         -69.723297     -185.818314      -63.509346
 C         -70.875732     -185.444046      -62.635952
 C         -69.001366     -187.074844      -63.167210
 C         -70.460594     -185.248749      -61.143162
 C         -68.615059     -187.038986      -61.728271
 C         -69.598434     -186.454895      -60.717312
 H         -71.734291     -186.120865      -62.751656
 H         -71.296844     -184.447632      -62.974495
 H         -69.695526     -187.907455      -63.424183
 H         -68.025658     -187.405563      -63.680996
 H         -71.152512     -184.958313      -60.403400
 H         -69.786858     -184.345490      -61.120052
 H         -67.635063     -186.474731      -61.626701
 H         -68.362343     -188.086365      -61.372715
 H         -70.336548     -187.332138      -60.222000
 H         -68.958115     -185.988068      -59.866371
