20
 generated by VMD
 C         -23.035280      -54.834381      -16.656506
 N         -23.755423      -55.258308      -15.800331
 H         -19.329508      -54.994541      -15.300147
 H         -22.032089      -54.755741      -17.318619
 C         -18.968555      -55.835018      -14.739464
 C         -19.385553      -55.681099      -13.308998
 C         -18.522385      -57.137550      -15.217208
 C         -20.092281      -56.969810      -12.757018
 C         -19.435463      -58.234837      -14.750457
 C         -19.383696      -58.239487      -13.217064
 H         -19.940281      -54.749752      -13.136307
 H         -18.507284      -55.435139      -12.744970
 H         -18.467655      -57.296192      -16.343397
 H         -17.473192      -57.309139      -14.963252
 H         -21.132462      -56.986267      -13.162388
 H         -20.144737      -56.902832      -11.695786
 H         -19.186338      -59.260159      -15.198353
 H         -20.457970      -57.938389      -15.015915
 H         -19.874819      -59.168079      -12.835191
 H         -18.356110      -58.282253      -12.905656
