20
 generated by VMD
 C         -44.784523     -122.335487      -35.858509
 N         -44.649956     -122.811028      -34.787128
 H         -45.223053     -122.732483      -39.188156
 H         -44.604324     -121.865036      -36.886269
 C         -45.000256     -121.802719      -39.629604
 C         -43.524754     -121.389565      -39.590744
 C         -46.050838     -120.821510      -39.543499
 C         -43.287624     -120.173973      -40.527042
 C         -45.749264     -119.636627      -40.513813
 C         -44.264709     -119.028641      -40.303627
 H         -43.023678     -122.300285      -39.887455
 H         -43.221176     -121.079575      -38.648911
 H         -47.005058     -121.168602      -40.006123
 H         -46.327030     -120.537643      -38.497829
 H         -43.268497     -120.445267      -41.670219
 H         -42.206345     -119.820953      -40.464588
 H         -46.376175     -118.732323      -40.434658
 H         -45.895500     -119.847092      -41.618362
 H         -44.044678     -118.173058      -40.949993
 H         -44.126228     -118.662819      -39.249268
