20
 generated by VMD
 C         -69.881927     -183.114075      -65.893272
 N         -70.994164     -182.931595      -65.742188
 H         -67.324333     -183.394089      -63.178158
 H         -68.841042     -183.226120      -65.974579
 C         -67.289665     -182.979233      -62.198559
 C         -67.772591     -183.674896      -60.962399
 C         -67.413994     -181.413361      -62.127724
 C         -66.899071     -183.251434      -59.724762
 C         -66.478020     -181.045898      -60.975845
 C         -66.756088     -181.738632      -59.635292
 H         -67.858902     -184.778976      -61.030537
 H         -68.843040     -183.505142      -60.560768
 H         -67.204529     -180.946548      -63.196304
 H         -68.420189     -181.095047      -61.800926
 H         -65.892143     -183.629959      -59.628437
 H         -67.371727     -183.716827      -58.828854
 H         -66.527458     -179.931503      -60.909290
 H         -65.441574     -181.363022      -61.101303
 H         -66.046455     -181.372284      -58.760303
 H         -67.725266     -181.349945      -59.327915
