20
 generated by VMD
 C         -11.426979      -25.926479       -0.856167
 N         -11.180210      -24.942726       -0.420565
 H          -7.571799      -26.009272       -1.047838
 H          -8.984298      -25.555143       -2.058294
 C          -7.872719      -25.533705       -1.942809
 C          -7.438277      -26.332726       -3.181629
 C          -7.367688      -24.064211       -1.994017
 C          -7.629202      -25.761353       -4.525311
 C          -7.579274      -23.450626       -3.366278
 C          -7.024388      -24.287094       -4.543297
 H          -7.851943      -27.348463       -3.107459
 H          -6.344219      -26.646595       -2.995222
 H          -7.806640      -23.431015       -1.180672
 H          -6.327524      -23.959385       -1.795650
 H          -8.691757      -25.625111       -4.755686
 H          -7.365430      -26.436735       -5.337958
 H          -7.272887      -22.413076       -3.420754
 H          -8.663933      -23.504707       -3.485699
 H          -7.159208      -23.825155       -5.544502
 H          -5.970944      -24.311220       -4.361803
