20
 generated by VMD
 C         -31.274525      -75.740410      -21.538820
 N         -32.282387      -75.253067      -21.318293
 H         -27.723606      -75.181526      -19.882210
 H         -30.583088      -76.148003      -22.276897
 C         -26.833942      -75.180351      -20.421867
 C         -26.462317      -76.363434      -21.373857
 C         -25.877842      -74.012428      -20.444687
 C         -25.932068      -75.868973      -22.750343
 C         -25.322691      -73.625877      -21.740088
 C         -24.857214      -74.780525      -22.661116
 H         -27.300814      -77.204964      -21.467890
 H         -25.647169      -76.944237      -20.844522
 H         -26.439116      -73.225075      -20.014252
 H         -25.067146      -74.419266      -19.889851
 H         -26.709019      -75.415245      -23.327791
 H         -25.569012      -76.687477      -23.358391
 H         -24.560194      -72.836845      -21.690710
 H         -26.094927      -73.008759      -22.213182
 H         -24.639206      -74.375290      -23.655159
 H         -23.964972      -75.136383      -22.172098
