20
 generated by VMD
 C         -46.469326     -124.388992      -36.101952
 N         -46.969582     -125.335831      -35.584969
 H         -44.400589     -121.703133      -37.940475
 H         -45.904137     -123.573044      -36.649391
 C         -44.494297     -121.399643      -39.012783
 C         -43.274418     -121.653152      -39.869236
 C         -45.691418     -120.849136      -39.580288
 C         -43.537262     -121.898041      -41.299232
 C         -45.932610     -121.179077      -41.085163
 C         -44.633553     -120.889381      -41.834187
 H         -42.588314     -122.433128      -39.378994
 H         -42.770992     -120.710274      -39.752872
 H         -46.528427     -121.345825      -39.071369
 H         -45.747269     -119.738434      -39.388802
 H         -44.028084     -122.895691      -41.422089
 H         -42.564884     -121.673866      -41.834377
 H         -46.755527     -120.651375      -41.519421
 H         -46.257648     -122.179520      -41.097462
 H         -44.668064     -120.989746      -42.964176
 H         -44.327469     -119.860672      -41.584370
