20
 generated by VMD
 C         -41.409912     -119.307564      -34.602459
 N         -40.730774     -119.569481      -35.513863
 H         -43.383125     -117.775063      -36.357544
 H         -42.075783     -118.854492      -33.863270
 C         -43.811920     -117.856522      -37.298965
 C         -42.991779     -118.073074      -38.584305
 C         -45.088669     -117.223526      -37.608475
 C         -43.772827     -118.419945      -39.940426
 C         -45.882252     -117.804024      -38.795315
 C         -45.100536     -117.816673      -40.175808
 H         -42.153927     -118.633484      -38.303555
 H         -42.582916     -117.164825      -38.809929
 H         -45.732582     -117.310944      -36.762119
 H         -45.046032     -116.072090      -37.766384
 H         -43.916065     -119.497765      -39.919125
 H         -43.031788     -118.301369      -40.655785
 H         -46.854000     -117.094299      -38.894775
 H         -46.377445     -118.826508      -38.644398
 H         -45.649109     -118.141441      -41.044205
 H         -44.902462     -116.653870      -40.324253
