20
 generated by VMD
 C         -30.534609      -75.396423      -21.125677
 N         -31.682274      -75.265610      -21.004107
 H         -27.946186      -74.646454      -20.207067
 H         -29.583828      -75.679947      -21.749399
 C         -26.892246      -74.844276      -20.491558
 C         -26.610443      -75.960419      -21.314692
 C         -25.912525      -73.662292      -20.356348
 C         -26.110958      -75.557480      -22.715240
 C         -25.353104      -73.283386      -21.825428
 C         -24.840837      -74.575607      -22.554066
 H         -27.474314      -76.736420      -21.428802
 H         -25.984316      -76.662056      -20.799152
 H         -26.411564      -72.829773      -19.968695
 H         -25.111437      -74.061661      -19.706280
 H         -26.877647      -75.078049      -23.344547
 H         -25.821346      -76.486046      -23.229645
 H         -24.584160      -72.562759      -21.727293
 H         -26.148102      -72.776360      -22.270786
 H         -24.659645      -74.320518      -23.614336
 H         -23.971037      -74.908424      -21.941969
