20
 generated by VMD
 C         -29.477762      -89.956444      -25.217051
 N         -29.098526      -91.047058      -25.495609
 H         -32.250004      -91.541092      -27.296545
 H         -29.685926      -88.861328      -25.025997
 C         -33.094902      -90.890244      -27.480934
 C         -34.479385      -91.493881      -27.497953
 C         -32.861465      -89.628754      -28.398117
 C         -35.452946      -90.415932      -27.189749
 C         -33.928043      -88.563644      -28.217159
 C         -35.344311      -89.227806      -28.166950
 H         -34.609524      -92.352577      -26.809223
 H         -34.633602      -91.988708      -28.545391
 H         -31.771656      -89.315208      -28.307947
 H         -32.900764      -89.895813      -29.454208
 H         -35.229580      -90.116768      -26.152973
 H         -36.506069      -90.834328      -27.295475
 H         -34.024071      -87.848122      -29.065800
 H         -33.767479      -87.928864      -27.332275
 H         -35.921917      -88.441132      -27.770109
 H         -35.728882      -89.278000      -29.136177
