20
 generated by VMD
 C         -22.482618      -54.852596      -15.942835
 N         -23.489428      -55.336487      -16.065899
 H         -19.494003      -54.658321      -15.331976
 H         -21.453568      -54.798405      -15.515162
 C         -19.472656      -55.568962      -14.783199
 C         -19.369162      -55.426743      -13.390035
 C         -18.891481      -56.852032      -15.394654
 C         -19.624184      -56.666702      -12.554550
 C         -19.615919      -58.090572      -14.677445
 C         -19.172794      -58.020287      -13.178118
 H         -20.078819      -54.624039      -13.133944
 H         -18.351967      -55.125622      -13.144111
 H         -19.098608      -56.891624      -16.491968
 H         -17.835224      -56.774258      -15.352330
 H         -20.684160      -56.697910      -12.294171
 H         -19.177906      -56.530872      -11.534475
 H         -19.112518      -58.955151      -15.039442
 H         -20.724033      -58.030361      -14.839628
 H         -19.512249      -58.830669      -12.527794
 H         -18.077314      -58.054291      -13.065990
