20
 generated by VMD
 C         -31.083555      -78.361603      -26.286917
 N         -31.585468      -77.567741      -25.536098
 H         -29.227570      -77.512047      -22.971491
 H         -30.559059      -79.228867      -26.623318
 C         -28.793991      -78.391266      -22.560064
 C         -27.389130      -78.615883      -22.989510
 C         -29.556658      -79.502525      -22.072227
 C         -26.587427      -79.629303      -22.179770
 C         -28.748962      -80.594284      -21.351252
 C         -27.434736      -80.962021      -22.012541
 H         -26.868921      -77.646873      -23.119658
 H         -27.478359      -78.905334      -24.119356
 H         -30.238949      -79.117027      -21.388378
 H         -30.155617      -79.801987      -22.971601
 H         -26.511284      -79.089020      -21.218307
 H         -25.615349      -80.002563      -22.542042
 H         -29.392815      -81.460045      -21.349140
 H         -28.669950      -80.244133      -20.418423
 H         -26.901114      -81.622749      -21.301765
 H         -27.522583      -81.476303      -22.933437
