20
 generated by VMD
 C         -40.582680     -106.635124      -37.311974
 N         -39.555634     -106.693710      -37.806522
 H         -38.503223     -108.295860      -34.623451
 H         -41.418751     -106.539238      -36.618042
 C         -39.188339     -108.908432      -34.083736
 C         -38.607777     -109.850876      -33.098881
 C         -40.564808     -108.809525      -34.434929
 C         -39.599060     -110.387215      -32.064640
 C         -41.538223     -109.241402      -33.283882
 C         -41.071854     -110.597748      -32.709518
 H         -37.751701     -109.494606      -32.530907
 H         -38.207077     -110.760788      -33.597218
 H         -40.785095     -107.735550      -34.737125
 H         -40.747173     -109.382523      -35.314785
 H         -39.751556     -109.660759      -31.210577
 H         -39.080128     -111.233643      -31.666920
 H         -42.520546     -109.328217      -33.601864
 H         -41.688408     -108.492950      -32.506046
 H         -41.734859     -110.998558      -32.037113
 H         -40.991150     -111.311165      -33.628750
