20
 generated by VMD
 C         -21.702793      -52.399616      -11.329716
 N         -21.603788      -52.970249      -10.281313
 H         -19.758400      -50.714565      -13.990935
 H         -22.175272      -52.013603      -12.367093
 C         -18.822756      -51.108467      -13.784052
 C         -18.112116      -52.098286      -14.697948
 C         -18.403307      -50.986553      -12.336542
 C         -16.578371      -51.885338      -14.476804
 C         -16.916924      -51.065174      -12.050568
 C         -16.195755      -52.026680      -13.004208
 H         -18.272100      -51.717388      -15.747071
 H         -18.452612      -53.112167      -14.540451
 H         -18.796413      -50.035812      -11.923798
 H         -18.873474      -51.814289      -11.750583
 H         -16.359463      -50.874996      -14.889601
 H         -15.953051      -52.588894      -15.065570
 H         -16.789368      -51.381813      -10.952654
 H         -16.515478      -50.087738      -12.120436
 H         -15.092034      -52.042850      -12.841185
 H         -16.481838      -53.074566      -12.787442
