20
 generated by VMD
 C         -28.112041      -83.463455      -27.360537
 N         -27.325573      -83.429626      -26.511824
 H         -30.882439      -84.709999      -26.324451
 H         -28.875051      -83.432213      -28.024843
 C         -31.651802      -85.176552      -25.798622
 C         -31.558502      -85.055801      -24.248829
 C         -32.135540      -86.440132      -26.482552
 C         -32.652420      -85.879028      -23.551266
 C         -33.320877      -87.091118      -25.705536
 C         -32.968391      -87.166832      -24.223854
 H         -31.579996      -83.941109      -24.076582
 H         -30.603064      -85.505028      -23.968390
 H         -32.459126      -86.205826      -27.478256
 H         -31.266619      -87.143486      -26.594315
 H         -33.568905      -85.231827      -23.395338
 H         -32.382282      -86.083412      -22.566730
 H         -33.566631      -88.049553      -26.185148
 H         -34.196678      -86.350845      -25.854229
 H         -33.790920      -87.662430      -23.627962
 H         -32.136242      -87.840340      -24.263849
