20
 generated by VMD
 C          -1.170931       -9.868475        1.189091
 N          -1.858329       -9.799148        0.304606
 H          -3.067414      -12.088774        1.365247
 H          -4.009261      -12.194315        2.834959
 C          -3.767631      -12.749475        1.932979
 C          -3.084653      -14.002579        2.447122
 C          -5.125759      -12.932665        1.272434
 C          -4.003206      -14.878031        3.318407
 C          -6.010703      -13.905401        2.139952
 C          -5.248105      -15.204781        2.574028
 H          -2.228216      -13.739237        3.036869
 H          -2.797853      -14.672519        1.625905
 H          -5.636864      -11.973413        1.050171
 H          -4.926386      -13.500177        0.370661
 H          -4.177177      -14.353665        4.206729
 H          -3.392616      -15.706224        3.609091
 H          -6.933088      -14.219707        1.615022
 H          -6.334601      -13.391389        3.084377
 H          -5.914050      -15.749981        3.258948
 H          -5.091474      -15.921019        1.710819
