20
 generated by VMD
 C         -50.138157     -144.957779      -44.552910
 N         -49.423283     -144.093658      -44.583393
 H         -52.598053     -142.475464      -45.730839
 H         -50.730190     -145.877472      -44.665710
 C         -53.124496     -142.461685      -46.698174
 C         -52.394424     -142.447144      -47.945274
 C         -54.557407     -141.739883      -46.638596
 C         -53.314884     -142.704926      -49.215424
 C         -55.452076     -142.071487      -47.865753
 C         -54.617760     -141.914200      -49.174786
 H         -51.433861     -143.005539      -47.953373
 H         -52.006363     -141.509552      -48.189423
 H         -55.006893     -142.094437      -45.741016
 H         -54.355228     -140.763306      -46.517906
 H         -53.697929     -143.650665      -49.236088
 H         -52.670998     -142.604248      -50.031071
 H         -56.270596     -141.328018      -47.937267
 H         -55.789677     -143.063324      -47.759270
 H         -55.185295     -142.135773      -50.032066
 H         -54.434956     -140.930557      -49.309635
