20
 generated by VMD
 C          -4.024942      -20.612019        3.142824
 N          -4.541745      -19.659599        2.880190
 H          -5.168675      -19.108473       -0.316579
 H          -5.856782      -20.711260       -0.490967
 C          -5.926833      -19.676487       -0.854939
 C          -5.677635      -19.615501       -2.358354
 C          -7.319264      -19.106272       -0.445821
 C          -6.819905      -20.308065       -3.035818
 C          -8.458240      -19.729483       -1.270980
 C          -8.095214      -19.596235       -2.731262
 H          -4.740319      -20.052588       -2.595249
 H          -5.498300      -18.563066       -2.712618
 H          -7.560825      -19.359547        0.607342
 H          -7.349408      -17.981485       -0.459944
 H          -6.876099      -21.427149       -2.788394
 H          -6.620497      -20.274548       -4.127748
 H          -9.420602      -19.253632       -1.134386
 H          -8.556613      -20.809374       -0.993286
 H          -8.890382      -19.857836       -3.436583
 H          -8.081779      -18.523651       -2.892524
