20
 generated by VMD
 C         -21.341261      -56.196247      -17.467331
 N         -20.764847      -55.252182      -17.902281
 H         -23.312807      -58.666817      -15.517217
 H         -21.958546      -56.642937      -16.694746
 C         -22.440910      -59.309822      -15.211825
 C         -21.775328      -59.022488      -13.854328
 C         -21.720415      -60.104576      -16.239635
 C         -20.908066      -60.031593      -13.284982
 C         -20.354845      -60.584373      -15.635756
 C         -20.550240      -61.162483      -14.276913
 H         -22.608168      -58.752754      -13.190964
 H         -21.252951      -58.055416      -13.830612
 H         -22.336372      -60.916004      -16.670666
 H         -21.555578      -59.438541      -17.101480
 H         -21.491756      -60.525280      -12.491184
 H         -19.992834      -59.712948      -12.756773
 H         -19.386810      -60.021538      -15.820705
 H         -20.168444      -61.474049      -16.287397
 H         -21.301832      -61.978481      -14.338302
 H         -19.550188      -61.531448      -13.987389
