20
 generated by VMD
 C         -23.605034      -54.851147      -14.892884
 N         -23.119431      -54.328892      -15.808751
 H         -20.596840      -54.822849      -15.107438
 H         -23.798597      -55.445389      -13.970407
 C         -19.617365      -55.234058      -14.739342
 C         -18.753717      -54.734581      -13.604884
 C         -19.038696      -56.505489      -15.331047
 C         -18.960350      -55.788040      -12.467423
 C         -18.916622      -57.550289      -14.287367
 C         -18.299486      -56.983398      -13.021401
 H         -19.143890      -53.725590      -13.282903
 H         -17.661026      -54.730068      -13.847048
 H         -19.634491      -56.931274      -16.178938
 H         -17.967352      -56.210777      -15.706740
 H         -20.016037      -55.989147      -12.333129
 H         -18.635389      -55.539219      -11.439773
 H         -18.336081      -58.324326      -14.678880
 H         -19.899761      -58.011974      -14.079728
 H         -18.322979      -57.774269      -12.228829
 H         -17.182278      -56.839081      -13.121211
