20
 generated by VMD
 C         -79.142181     -207.810455      -75.260872
 N         -78.532448     -207.164871      -76.010185
 H         -78.782120     -210.280670      -73.494926
 H         -79.777153     -208.549423      -74.664436
 C         -78.535812     -210.018982      -72.476738
 C         -77.216011     -209.094635      -72.329422
 C         -78.604393     -211.107513      -71.366692
 C         -76.967453     -208.651642      -70.911201
 C         -78.446777     -210.590271      -69.923836
 C         -77.120491     -209.898987      -69.915413
 H         -77.070953     -208.351608      -73.097740
 H         -76.407524     -209.816971      -72.387077
 H         -79.573769     -211.656174      -71.369476
 H         -77.873528     -211.820297      -71.709839
 H         -77.637817     -207.869446      -70.671806
 H         -75.969948     -208.258820      -71.025063
 H         -78.400131     -211.456558      -69.340141
 H         -79.206306     -209.835068      -69.490776
 H         -77.066734     -209.524704      -68.863106
 H         -76.250008     -210.569290      -70.037109
