20
 generated by VMD
 C         -23.138094      -55.105179      -16.790846
 N         -23.669746      -55.015587      -15.810300
 H         -19.558327      -55.253891      -15.527512
 H         -22.809744      -54.877956      -17.726372
 C         -19.141203      -55.993214      -14.824728
 C         -19.447994      -55.910454      -13.324925
 C         -18.443113      -57.182198      -15.290649
 C         -20.341366      -57.086140      -12.865018
 C         -18.953924      -58.598934      -14.649364
 C         -19.873886      -58.515621      -13.374315
 H         -20.011168      -54.973221      -13.218727
 H         -18.515154      -55.824650      -12.684291
 H         -18.527683      -57.336761      -16.316732
 H         -17.367266      -56.979485      -14.982990
 H         -21.394623      -56.826759      -13.008313
 H         -20.308371      -57.130493      -11.736736
 H         -18.062241      -59.107555      -14.342377
 H         -19.422176      -59.149040      -15.468473
 H         -20.764572      -59.097141      -13.591713
 H         -19.475639      -59.106831      -12.510692
