20
 generated by VMD
 C         -30.228571      -92.744904      -25.901661
 N         -31.338158      -92.796089      -25.570107
 H         -32.927876      -90.770988      -26.331854
 H         -29.123217      -92.762001      -26.099371
 C         -33.557194      -90.899269      -27.235857
 C         -34.348083      -92.090340      -27.335760
 C         -33.066917      -90.122963      -28.473202
 C         -35.591770      -91.792664      -28.184504
 C         -34.251053      -89.884064      -29.363596
 C         -35.339901      -91.018051      -29.456293
 H         -34.770527      -92.476791      -26.261194
 H         -33.781364      -92.973251      -27.866684
 H         -32.594383      -89.164017      -28.186886
 H         -32.319038      -90.826073      -28.928335
 H         -36.194828      -91.217247      -27.527159
 H         -36.154156      -92.760086      -28.331699
 H         -34.061028      -89.757866      -30.439358
 H         -34.884830      -89.070107      -28.959837
 H         -36.261677      -90.650116      -29.912193
 H         -34.951637      -91.820061      -30.093668
