20
 generated by VMD
 C         -22.589331      -52.261620      -11.772344
 N         -22.442270      -52.681187      -10.632775
 H         -19.961117      -52.121216      -14.117238
 H         -22.996901      -52.101128      -12.619479
 C         -18.857765      -52.321480      -13.873234
 C         -17.916826      -51.704845      -14.823669
 C         -18.362434      -53.150589      -12.690020
 C         -16.534618      -52.340919      -14.576872
 C         -17.189922      -52.371071      -12.084307
 C         -16.112509      -52.067211      -13.123084
 H         -17.833532      -50.674728      -14.715995
 H         -18.372746      -51.849125      -15.819166
 H         -19.206938      -53.304913      -11.963018
 H         -18.025852      -54.130558      -12.992256
 H         -15.880756      -51.849266      -15.314910
 H         -16.580332      -53.418358      -14.831269
 H         -16.766823      -52.662453      -11.184643
 H         -17.688505      -51.406441      -11.873662
 H         -15.754315      -51.041702      -13.005944
 H         -15.272878      -52.735268      -12.956574
