20
 generated by VMD
 C          -1.866889       -8.675318       -0.463361
 N          -2.152735       -7.935986        0.341648
 H          -3.262272       -9.385251        2.647261
 H          -1.872095      -10.407367        2.788126
 C          -2.988168      -10.359428        2.977964
 C          -3.654763      -11.442196        2.202096
 C          -3.245877      -10.506312        4.421787
 C          -3.469078      -12.858713        2.629269
 C          -3.004258      -11.953799        4.959304
 C          -3.758302      -12.973115        4.114765
 H          -3.330121      -11.352849        1.132826
 H          -4.733675      -11.299748        2.171762
 H          -2.764364       -9.794999        5.081453
 H          -4.281185      -10.187094        4.563828
 H          -2.453847      -13.276034        2.503319
 H          -4.150672      -13.610938        2.161369
 H          -3.235064      -11.924716        6.018970
 H          -1.951331      -12.141026        4.903554
 H          -3.473009      -13.990416        4.443945
 H          -4.852975      -12.972363        4.248886
