20
 generated by VMD
 C         -18.701735      -49.927887       -9.623060
 N         -19.504545      -50.770775       -9.524398
 H         -16.366035      -47.333527       -9.918941
 H         -17.812262      -49.290131       -9.394726
 C         -16.601427      -47.761406      -10.913631
 C         -15.735293      -48.816566      -11.490963
 C         -17.501934      -47.120228      -11.927838
 C         -16.391514      -49.733570      -12.558105
 C         -17.972675      -47.937737      -13.145555
 C         -16.887629      -48.897793      -13.744584
 H         -15.481728      -49.389732      -10.544223
 H         -14.861829      -48.349773      -11.938870
 H         -18.400888      -46.903931      -11.380405
 H         -17.014221      -46.192528      -12.179687
 H         -17.241556      -50.304855      -12.094249
 H         -15.605971      -50.366455      -12.996934
 H         -18.260332      -47.178814      -13.947436
 H         -18.813398      -48.456398      -12.825651
 H         -17.290615      -49.571659      -14.577492
 H         -16.078173      -48.241634      -14.265747
