20
 generated by VMD
 C         -10.378833      -33.086475       -8.994166
 N         -11.167298      -33.816811       -9.361986
 H         -13.090152      -33.917030       -6.228100
 H         -13.102360      -34.515343       -4.667298
 C         -13.016143      -34.917263       -5.663551
 C         -11.678721      -35.578445       -5.973335
 C         -14.283055      -35.747044       -6.108126
 C         -11.609333      -36.967476       -5.541402
 C         -14.157921      -37.248878       -5.829822
 C         -12.749312      -37.795086       -6.186519
 H         -10.974964      -34.978844       -5.447657
 H         -11.410415      -35.433784       -7.024445
 H         -15.124717      -35.304569       -5.530051
 H         -14.491549      -35.581722       -7.171373
 H         -11.681903      -37.084763       -4.428257
 H         -10.622150      -37.427914       -5.739454
 H         -15.010095      -37.825977       -6.315330
 H         -14.306954      -37.363152       -4.803586
 H         -12.622562      -38.782070       -5.814987
 H         -12.645020      -37.789413       -7.292779
