20
 generated by VMD
 C         -19.398472      -62.401394      -17.494457
 N         -20.165562      -62.324287      -16.651127
 H         -22.337900      -64.132896      -16.602539
 H         -18.903732      -62.591831      -18.502108
 C         -23.199444      -64.681641      -17.058979
 C         -23.620699      -64.222145      -18.505371
 C         -24.199116      -65.146416      -16.110571
 C         -24.624355      -65.106316      -19.171181
 C         -25.187416      -66.087067      -16.890463
 C         -25.709257      -65.544495      -18.231789
 H         -22.677299      -63.949917      -19.182989
 H         -24.255449      -63.282719      -18.242599
 H         -23.612547      -65.635315      -15.312748
 H         -24.719074      -64.333107      -15.668526
 H         -24.110828      -66.011894      -19.505682
 H         -24.950842      -64.607666      -20.090769
 H         -25.976694      -66.533615      -16.256706
 H         -24.423845      -66.829369      -17.164936
 H         -26.045704      -66.434402      -18.818020
 H         -26.544918      -64.883591      -18.159328
