20
 generated by VMD
 C         -60.014435     -156.663132      -55.784702
 N         -60.941456     -156.122055      -56.203613
 H         -59.736671     -157.541626      -53.083256
 H         -59.124043     -157.200089      -55.555065
 C         -58.766438     -157.987610      -52.896568
 C         -57.633884     -156.997406      -52.606506
 C         -58.588306     -159.424088      -52.416965
 C         -57.363045     -156.946991      -51.000534
 C         -58.268185     -159.385788      -50.943008
 C         -57.123158     -158.446991      -50.555424
 H         -57.912300     -156.063797      -52.996597
 H         -56.659546     -157.160172      -52.968872
 H         -59.502083     -159.950928      -52.728207
 H         -57.765575     -159.846207      -52.889149
 H         -58.242901     -156.535156      -50.469215
 H         -56.438362     -156.428299      -50.941586
 H         -58.054661     -160.415009      -50.667210
 H         -59.176086     -158.945877      -50.398983
 H         -56.887142     -158.520737      -49.463600
 H         -56.312351     -158.759537      -51.140533
