20
 generated by VMD
 C          -6.699772      -22.654287        2.031725
 N          -6.149909      -22.869593        2.989313
 H          -5.690764      -20.047735       -0.454597
 H          -7.141687      -21.084431       -0.269844
 C          -6.528080      -20.525980       -1.012070
 C          -5.996735      -21.595470       -1.964710
 C          -7.224539      -19.359604       -1.736802
 C          -6.988263      -22.036524       -2.946588
 C          -8.239822      -19.853064       -2.769383
 C          -7.674225      -20.909275       -3.654859
 H          -5.640567      -22.438055       -1.428053
 H          -5.204181      -21.116995       -2.594805
 H          -7.601425      -18.611647       -0.973617
 H          -6.400311      -18.708582       -2.176385
 H          -7.750350      -22.618515       -2.380702
 H          -6.580424      -22.817415       -3.637324
 H          -8.680637      -19.011660       -3.359897
 H          -9.127865      -20.189682       -2.199863
 H          -8.425851      -21.306673       -4.381275
 H          -6.850625      -20.441130       -4.265672
