20
 generated by VMD
 C         -29.773674      -79.725769      -26.422461
 N         -30.314253      -78.865700      -25.853529
 H         -28.544346      -82.977692      -25.652622
 H         -29.389412      -80.555908      -27.143948
 C         -29.151083      -82.964645      -24.739042
 C         -28.654812      -81.920662      -23.693624
 C         -29.987709      -84.197884      -24.312048
 C         -29.818787      -81.600487      -22.768774
 C         -31.065275      -83.717628      -23.356047
 C         -30.601950      -82.845642      -22.293512
 H         -28.223633      -80.900536      -24.076176
 H         -27.928619      -82.420982      -23.025328
 H         -30.504122      -84.683052      -25.109468
 H         -29.273882      -84.833275      -23.825064
 H         -30.599295      -80.967850      -23.148821
 H         -29.375908      -80.938576      -21.862417
 H         -31.521460      -84.601562      -22.880047
 H         -31.880268      -83.276054      -23.912285
 H         -31.532116      -82.482681      -21.794653
 H         -29.943926      -83.409355      -21.718288
