20
 generated by VMD
 C         -20.472219      -57.105751      -16.933277
 N         -20.805983      -56.442127      -16.080828
 H         -22.244524      -59.787827      -17.776628
 H         -19.928843      -57.741207      -17.686663
 C         -22.129829      -60.170441      -16.827423
 C         -22.641508      -59.463715      -15.592537
 C         -21.746778      -61.636658      -16.759764
 C         -22.061827      -60.006542      -14.355375
 C         -20.944885      -61.980206      -15.544342
 C         -21.459389      -61.445305      -14.226925
 H         -23.737869      -59.547913      -15.566405
 H         -22.430895      -58.427593      -15.623065
 H         -22.764364      -62.102844      -16.669670
 H         -21.171181      -61.951122      -17.642063
 H         -22.726711      -59.818569      -13.461569
 H         -21.320206      -59.225117      -14.104078
 H         -20.094963      -61.364643      -15.574595
 H         -20.618639      -63.003132      -15.510849
 H         -22.320293      -62.061413      -13.863063
 H         -20.671028      -61.436424      -13.492013
