20
 generated by VMD
 C         -49.352333     -132.837875      -47.057327
 N         -49.937057     -131.862015      -47.046497
 H         -48.027161     -134.222321      -44.520130
 H         -49.098362     -133.839920      -47.242168
 C         -48.700836     -134.591278      -43.779781
 C         -49.057106     -136.015320      -43.868591
 C         -49.446884     -133.516647      -42.998447
 C         -49.964977     -136.493515      -42.683929
 C         -50.258396     -134.125275      -41.869186
 C         -50.953873     -135.310883      -42.350647
 H         -48.128990     -136.596725      -43.979439
 H         -49.610153     -136.123383      -44.765305
 H         -48.628937     -132.922684      -42.517521
 H         -49.959225     -132.861588      -43.695625
 H         -49.295410     -136.658081      -41.779915
 H         -50.390610     -137.453094      -43.128040
 H         -51.116993     -133.501373      -41.559696
 H         -49.620926     -134.292160      -40.927391
 H         -51.667194     -135.764114      -41.558563
 H         -51.818428     -135.138382      -43.119957
