20
 generated by VMD
 C         -33.644238      -96.106964      -25.425331
 N         -34.075932      -96.853828      -26.215178
 H         -34.872456      -94.292938      -27.323156
 H         -33.155422      -95.633118      -24.628836
 C         -34.871849      -93.985771      -28.340052
 C         -35.893856      -94.547554      -29.265594
 C         -33.603035      -93.737930      -29.067001
 C         -36.119316      -93.571480      -30.480885
 C         -33.789375      -92.821075      -30.316841
 C         -34.798607      -93.387596      -31.276268
 H         -36.845985      -94.762276      -28.739033
 H         -35.509247      -95.492508      -29.697559
 H         -32.990414      -93.293854      -28.219351
 H         -33.140392      -94.689682      -29.430138
 H         -36.540314      -92.646584      -30.127033
 H         -36.970268      -94.008553      -31.051260
 H         -32.779354      -92.693237      -30.765255
 H         -34.040676      -91.793259      -30.043356
 H         -34.972313      -92.868149      -32.144535
 H         -34.549316      -94.510941      -31.627390
