20
 generated by VMD
 C         -68.835022     -192.884720      -66.297913
 N         -68.166000     -193.370499      -67.086739
 H         -69.993324     -189.947220      -65.292862
 H         -69.224892     -192.482651      -65.429344
 C         -70.901306     -190.493866      -65.301018
 C         -71.750702     -190.840805      -66.487953
 C         -71.527397     -190.697006      -63.912663
 C         -72.629944     -191.980484      -66.172485
 C         -73.046463     -190.614883      -64.046288
 C         -73.607269     -191.628891      -65.060951
 H         -71.093109     -191.024933      -67.420105
 H         -72.355850     -189.978622      -66.705803
 H         -71.174042     -191.716370      -63.597008
 H         -71.178665     -189.889481      -63.231979
 H         -72.037537     -192.867706      -65.906219
 H         -73.025505     -192.353973      -67.102432
 H         -73.480392     -189.597656      -64.262962
 H         -73.413528     -190.862640      -62.995220
 H         -73.968033     -192.531342      -64.675667
 H         -74.528076     -191.077957      -65.537552
