20
 generated by VMD
 C         -23.433630      -53.027061      -12.811648
 N         -23.020914      -52.585754      -13.797550
 H         -20.451494      -55.156845      -13.799360
 H         -23.806009      -53.056675      -11.804355
 C         -19.474083      -54.659050      -13.989593
 C         -19.062578      -53.207439      -14.054619
 C         -18.299206      -55.619144      -14.082264
 C         -17.694109      -52.939453      -13.373733
 C         -17.249430      -55.291058      -13.009115
 C         -16.568686      -54.025356      -13.359324
 H         -19.731224      -52.588696      -13.466377
 H         -19.036795      -52.929981      -15.138031
 H         -18.611460      -56.664494      -13.931124
 H         -17.903008      -55.526642      -15.063088
 H         -17.869392      -52.773872      -12.312125
 H         -17.308292      -51.995804      -13.780535
 H         -16.433746      -56.053715      -13.038294
 H         -17.661493      -55.326950      -12.018133
 H         -15.741980      -53.814526      -12.575455
 H         -16.119932      -54.171211      -14.376369
