20
 generated by VMD
 C         -50.656643     -128.662613      -42.156651
 N         -51.746357     -128.292236      -41.824425
 H         -47.963203     -127.868530      -40.215359
 H         -49.616940     -128.802719      -42.432602
 C         -47.011253     -127.450516      -40.765602
 C         -45.736530     -128.148834      -40.196297
 C         -46.952545     -126.060402      -41.233238
 C         -44.426414     -127.749969      -40.882671
 C         -45.650097     -125.760002      -41.969585
 C         -44.467003     -126.186142      -41.073414
 H         -45.828800     -129.208786      -40.172371
 H         -45.606060     -127.739876      -39.125122
 H         -47.749969     -125.899254      -41.916088
 H         -46.937656     -125.359123      -40.378963
 H         -44.332458     -128.332550      -41.790222
 H         -43.656494     -127.923378      -40.198112
 H         -45.638142     -124.611198      -42.205147
 H         -45.599167     -126.245552      -43.000534
 H         -43.510166     -125.704178      -41.376781
 H         -44.630249     -125.601326      -40.166096
