20
 generated by VMD
 C         -21.478033      -65.789780      -17.085455
 N         -20.935268      -66.218575      -16.180557
 H         -24.061050      -63.838402      -18.275928
 H         -21.902102      -65.118179      -17.854998
 C         -24.682207      -64.747917      -18.439568
 C         -24.519316      -65.323639      -19.802246
 C         -25.232239      -65.666054      -17.381357
 C         -24.213680      -66.783737      -19.825359
 C         -25.091890      -67.163071      -17.587812
 C         -25.252779      -67.546631      -18.987526
 H         -23.759062      -64.801468      -20.391680
 H         -25.389492      -65.028717      -20.227098
 H         -24.773571      -65.483482      -16.372641
 H         -26.365410      -65.485291      -17.336672
 H         -23.145573      -66.934929      -19.407692
 H         -24.107908      -67.052017      -20.901798
 H         -25.757132      -67.587845      -16.819302
 H         -24.071411      -67.450592      -17.265808
 H         -24.978403      -68.614563      -19.114925
 H         -26.222116      -67.499496      -19.396307
