20
 generated by VMD
 C          -2.048908      -14.508388        1.851742
 N          -1.585329      -15.355508        2.405759
 H          -4.021228      -16.370783        0.753560
 H          -4.269106      -17.014030       -0.848929
 C          -4.803403      -16.804962        0.082413
 C          -5.814200      -15.671976       -0.149568
 C          -5.368325      -18.024817        0.786262
 C          -7.149195      -16.182850       -0.715264
 C          -6.702226      -18.481892        0.193030
 C          -7.668036      -17.366030        0.127254
 H          -5.459960      -14.909727       -0.799871
 H          -5.944403      -15.213613        0.870525
 H          -4.646416      -18.793249        0.744974
 H          -5.540871      -17.834780        1.824644
 H          -7.026278      -16.607847       -1.725191
 H          -7.894198      -15.319059       -0.731647
 H          -7.011308      -19.339979        0.753995
 H          -6.442709      -18.778406       -0.835348
 H          -8.675654      -17.609062       -0.222620
 H          -7.707104      -16.957256        1.111930
