20
 generated by VMD
 C         -11.387649      -39.516777       -7.075214
 N         -10.927456      -39.863930       -6.141232
 H         -13.180447      -40.726990       -9.023382
 H         -14.727212      -39.803711       -9.092055
 C         -14.323816      -40.819206       -9.218803
 C         -14.931079      -41.669884       -8.099978
 C         -14.654840      -41.548565      -10.540669
 C         -16.411518      -41.936615       -8.279902
 C         -16.190781      -41.626144      -10.787456
 C         -16.806149      -42.510258       -9.677646
 H         -14.767445      -41.231720       -7.050633
 H         -14.399577      -42.663883       -7.999005
 H         -14.161267      -41.099243      -11.432123
 H         -14.194175      -42.549911      -10.495181
 H         -16.978838      -41.026535       -8.029664
 H         -16.813951      -42.608639       -7.445190
 H         -16.315252      -42.026413      -11.785230
 H         -16.594290      -40.561886      -10.711917
 H         -17.898518      -42.513638       -9.805978
 H         -16.353594      -43.507648       -9.723392
