20
 generated by VMD
 C         -19.707527      -61.682613      -16.240797
 N         -20.135014      -61.089607      -17.165743
 H         -21.733669      -63.041309      -17.553207
 H         -19.295538      -62.413532      -15.487832
 C         -22.718575      -63.531719      -17.438660
 C         -23.593781      -63.644894      -18.655836
 C         -23.164165      -63.843994      -16.107275
 C         -24.708302      -64.691765      -18.640711
 C         -24.114931      -65.013756      -16.052975
 C         -25.202868      -64.697960      -17.205523
 H         -22.976978      -63.757404      -19.525780
 H         -24.027725      -62.657501      -18.839010
 H         -22.500084      -63.961769      -15.346660
 H         -23.729933      -62.928898      -15.879437
 H         -24.196651      -65.627396      -18.815582
 H         -25.496571      -64.522980      -19.311241
 H         -24.585308      -65.076752      -15.026933
 H         -23.707701      -66.066246      -16.212486
 H         -25.923279      -65.479553      -17.005327
 H         -25.674675      -63.738312      -16.927078
