20
 generated by VMD
 C         -40.010006     -116.823647      -34.602066
 N         -39.398373     -115.821503      -34.517384
 H         -41.458847     -116.312836      -37.822258
 H         -40.434692     -117.853325      -34.761986
 C         -42.467155     -116.155853      -37.894684
 C         -43.202030     -115.722076      -39.148235
 C         -43.218212     -115.910789      -36.590706
 C         -44.483845     -116.592018      -39.311966
 C         -44.596001     -116.527641      -36.595913
 C         -45.326828     -116.482010      -38.004818
 H         -42.536747     -115.948036      -40.021236
 H         -43.375877     -114.569626      -39.088367
 H         -42.757046     -116.338951      -35.768860
 H         -43.330330     -114.862755      -36.393913
 H         -44.239624     -117.659554      -39.313034
 H         -45.057686     -116.372391      -40.163757
 H         -45.389309     -116.185860      -35.856445
 H         -44.513752     -117.664429      -36.323086
 H         -46.068981     -117.297646      -37.935726
 H         -45.927444     -115.433968      -37.921059
