20
 generated by VMD
 C         -70.307014     -182.741608      -65.003151
 N         -70.621094     -183.696533      -65.539963
 H         -67.861710     -181.281845      -62.988323
 H         -70.010971     -181.826248      -64.525597
 C         -67.465088     -181.326065      -62.011841
 C         -67.834328     -182.461746      -61.104874
 C         -67.011497     -180.082733      -61.309578
 C         -66.527985     -182.807465      -60.324768
 C         -65.823318     -180.313873      -60.355839
 C         -66.004112     -181.598877      -59.629517
 H         -68.241234     -183.234619      -61.806156
 H         -68.576683     -182.307922      -60.352966
 H         -66.699593     -179.223770      -62.086349
 H         -67.872856     -179.649155      -60.721287
 H         -65.748322     -183.223862      -61.099918
 H         -66.813385     -183.651840      -59.648392
 H         -65.756981     -179.416992      -59.720360
 H         -64.836273     -180.352600      -60.817787
 H         -65.058434     -181.890991      -59.088707
 H         -66.733200     -181.488342      -58.905552
