20
 generated by VMD
 C         -40.179131      -99.608376      -28.882017
 N         -39.350170     -100.078285      -28.182463
 H         -37.299057      -98.081306      -30.849722
 H         -40.735382      -99.002747      -29.504416
 C         -36.397720      -98.606667      -30.821878
 C         -35.821758      -98.925797      -32.114059
 C         -35.474705      -98.313271      -29.527472
 C         -34.717579      -97.961189      -32.491264
 C         -34.244419      -97.438408      -29.880863
 C         -33.620094      -97.746086      -31.281910
 H         -36.646267      -98.986832      -32.919819
 H         -35.479382      -99.908669      -31.887562
 H         -36.238716      -97.927307      -28.761999
 H         -35.007988      -99.242676      -29.210905
 H         -35.060940      -96.964211      -32.731236
 H         -34.194496      -98.513382      -33.403820
 H         -33.406818      -97.590805      -29.128714
 H         -34.422249      -96.371056      -29.839056
 H         -32.867077      -97.034805      -31.533916
 H         -33.166267      -98.796082      -31.133045
