20
 generated by VMD
 C          -7.486072      -23.490864        1.870143
 N          -7.545484      -22.923237        2.814990
 H          -8.962355      -23.560795       -1.708064
 H          -9.362473      -22.338264       -2.844496
 C          -8.537581      -22.786533       -2.349088
 C          -7.718240      -23.575367       -3.284932
 C          -7.844553      -21.745739       -1.566467
 C          -6.928621      -22.751179       -4.229103
 C          -7.081130      -20.847456       -2.551373
 C          -6.192429      -21.670040       -3.517972
 H          -8.281871      -24.320807       -3.865951
 H          -7.093111      -24.267523       -2.729315
 H          -8.636844      -21.150877       -1.031270
 H          -7.126478      -22.230930       -0.872303
 H          -7.638648      -22.332146       -4.895403
 H          -6.254379      -23.322277       -4.850982
 H          -6.433235      -20.133678       -2.024251
 H          -7.784111      -20.335688       -3.229183
 H          -5.740531      -20.969255       -4.212617
 H          -5.432586      -22.108200       -2.862517
