20
 generated by VMD
 C         -68.342659     -193.601593      -65.078728
 N         -68.317307     -194.722336      -65.359680
 H         -70.701508     -192.869843      -67.371696
 H         -68.067696     -192.555862      -64.842484
 C         -71.642754     -192.478867      -66.949142
 C         -71.807602     -191.046692      -66.388725
 C         -72.771194     -193.459305      -66.803368
 C         -73.298683     -190.786331      -66.093033
 C         -73.563004     -193.368927      -65.586533
 C         -74.049316     -191.878204      -65.329407
 H         -71.291306     -190.461914      -67.163139
 H         -71.127731     -190.958267      -65.460213
 H         -73.534149     -193.291550      -67.581558
 H         -72.526321     -194.528656      -67.113213
 H         -73.723236     -190.680847      -67.088806
 H         -73.435379     -189.777893      -65.762985
 H         -72.880867     -193.729324      -64.789093
 H         -74.372749     -194.029526      -65.473122
 H         -74.995872     -191.782608      -65.679993
 H         -74.233490     -191.795975      -64.187355
