20
 generated by VMD
 C         -39.157650     -107.881500      -37.721230
 N         -39.014278     -106.730019      -37.907307
 H         -39.622631     -108.202560      -33.931705
 H         -39.119293     -108.981155      -37.569767
 C         -40.145821     -109.069725      -34.223892
 C         -39.323299     -110.410202      -34.142284
 C         -41.706779     -109.207649      -34.139187
 C         -39.767845     -111.077293      -32.878567
 C         -42.060913     -110.067711      -32.955261
 C         -41.262383     -111.278267      -32.657505
 H         -38.232170     -110.097420      -34.054348
 H         -39.615192     -110.948891      -35.026695
 H         -42.280827     -108.296661      -34.111080
 H         -42.055523     -109.772278      -35.086586
 H         -39.496174     -110.564453      -31.975895
 H         -39.238258     -112.099960      -32.786312
 H         -43.129162     -110.407219      -32.883221
 H         -42.064613     -109.494148      -32.053085
 H         -41.420460     -111.537460      -31.541615
 H         -41.614063     -112.137009      -33.269604
