20
 generated by VMD
 C         -30.690741      -78.295204      -25.148550
 N         -31.374653      -77.307571      -25.027849
 H         -29.077629      -76.880722      -22.455851
 H         -30.030951      -79.122833      -25.163408
 C         -28.759081      -77.937469      -22.584797
 C         -27.509600      -78.225769      -23.269835
 C         -29.493536      -79.100357      -21.976177
 C         -26.549013      -79.014771      -22.474091
 C         -28.413902      -80.051292      -21.254375
 C         -27.118336      -80.282036      -21.993620
 H         -26.969240      -77.201797      -23.441229
 H         -27.818453      -78.755814      -24.229918
 H         -30.070585      -78.640648      -21.107786
 H         -30.132376      -79.550705      -22.785927
 H         -26.219784      -78.312592      -21.722301
 H         -25.587374      -79.348343      -22.911413
 H         -28.886263      -80.996193      -21.002584
 H         -28.378969      -79.635262      -20.183052
 H         -26.497808      -80.808113      -21.381695
 H         -27.259127      -80.980240      -22.820929
