20
 generated by VMD
 C         -47.958675     -134.592773      -46.918045
 N         -47.984158     -134.094757      -48.010277
 H         -50.356728     -134.419769      -44.872410
 H         -47.827961     -134.884476      -45.857475
 C         -50.495964     -135.255997      -44.280514
 C         -50.840019     -136.507233      -45.056717
 C         -51.094208     -135.105194      -42.893295
 C         -50.941269     -137.778061      -44.184658
 C         -51.224918     -136.401489      -42.125317
 C         -51.822502     -137.578506      -42.962517
 H         -50.034397     -136.756882      -45.760094
 H         -51.787655     -136.293427      -45.699364
 H         -50.332817     -134.441208      -42.315434
 H         -52.076492     -134.645004      -42.757092
 H         -49.911263     -137.951584      -43.928089
 H         -51.165886     -138.680908      -44.781033
 H         -51.978489     -136.268921      -41.412548
 H         -50.283661     -136.642761      -41.663078
 H         -51.601288     -138.486923      -42.365788
 H         -52.833138     -137.348923      -43.342319
