20
 generated by VMD
 C         -20.336475      -57.321583      -16.790308
 N         -19.330978      -56.749954      -16.928810
 H         -22.577703      -59.451878      -17.471466
 H         -21.379978      -57.649944      -16.697987
 C         -22.490208      -60.356312      -16.763613
 C         -23.660501      -60.831097      -16.057379
 C         -21.107676      -61.079384      -16.594860
 C         -23.397610      -61.251961      -14.631173
 C         -21.126684      -62.270584      -15.575396
 C         -22.085449      -61.986645      -14.376880
 H         -23.915701      -61.788830      -16.570133
 H         -24.485973      -60.150040      -16.086908
 H         -20.832220      -61.574299      -17.569195
 H         -20.291397      -60.386990      -16.359089
 H         -24.307169      -61.755112      -14.222181
 H         -23.400177      -60.378590      -13.946082
 H         -20.055500      -62.395672      -15.205323
 H         -21.588650      -63.146240      -16.110229
 H         -22.346647      -63.004948      -13.938016
 H         -21.625586      -61.650505      -13.467604
