20
 generated by VMD
 C         -56.142555     -149.345810      -45.906910
 N         -56.048550     -150.339325      -45.364944
 H         -53.775684     -147.921432      -47.715019
 H         -56.367439     -148.445496      -46.434879
 C         -54.019924     -147.440186      -48.703419
 C         -52.978443     -147.565750      -49.900459
 C         -54.772373     -146.124207      -48.511330
 C         -53.679592     -147.040482      -51.174831
 C         -55.309624     -145.635986      -49.924133
 C         -54.156551     -145.539963      -50.991631
 H         -52.584667     -148.499649      -50.007816
 H         -52.003632     -147.016220      -49.614861
 H         -55.560760     -146.209198      -47.817829
 H         -54.125050     -145.367569      -47.991535
 H         -54.622639     -147.570923      -51.438660
 H         -53.043335     -147.147461      -52.073483
 H         -55.743282     -144.581558      -49.668106
 H         -56.047012     -146.347198      -50.229752
 H         -54.526062     -144.927582      -51.840878
 H         -53.304909     -145.014633      -50.554279
