20
 generated by VMD
 C         -29.924793      -91.715424      -25.474707
 N         -29.049000      -92.218460      -24.831385
 H         -32.844334      -89.800163      -26.457756
 H         -30.666887      -91.190117      -25.984734
 C         -33.179550      -90.261620      -27.387621
 C         -34.116501      -91.427467      -27.356447
 C         -33.144623      -89.544281      -28.682747
 C         -35.611149      -91.072838      -27.610325
 C         -34.640030      -89.047523      -28.929836
 C         -35.649948      -90.213547      -28.988083
 H         -33.916023      -91.722107      -26.328060
 H         -33.655094      -92.124390      -28.140471
 H         -32.453575      -88.730995      -28.626432
 H         -32.843071      -90.265053      -29.451233
 H         -36.167480      -90.478302      -26.817959
 H         -36.247623      -91.854652      -27.893394
 H         -34.512756      -88.523216      -29.874371
 H         -34.967396      -88.281319      -28.180618
 H         -36.736927      -89.932266      -28.946974
 H         -35.480251      -90.857834      -29.918406
