20
 generated by VMD
 C         -50.702377     -130.032227      -44.985531
 N         -51.545273     -129.170227      -44.951542
 H         -49.221176     -129.433105      -42.291531
 H         -49.828770     -130.645477      -45.224808
 C         -48.213226     -129.694809      -42.196980
 C         -47.931717     -131.025925      -41.614704
 C         -47.456551     -128.550247      -41.606544
 C         -46.451290     -131.268555      -41.160343
 C         -46.052448     -128.874268      -41.184536
 C         -45.965481     -130.083420      -40.295578
 H         -48.199467     -131.851974      -42.387749
 H         -48.556778     -131.135757      -40.802654
 H         -47.556137     -127.748932      -42.320053
 H         -48.160286     -128.149979      -40.814014
 H         -45.877117     -131.402832      -42.042160
 H         -46.513302     -132.181351      -40.712734
 H         -45.626755     -127.889282      -40.753933
 H         -45.438637     -129.064453      -42.090225
 H         -44.881271     -130.311539      -40.098717
 H         -46.446556     -129.859253      -39.340637
