20
 generated by VMD
 C         -19.494097      -61.586567      -16.164499
 N         -20.095169      -60.983601      -16.979118
 H         -21.612717      -63.007832      -17.865284
 H         -18.741703      -62.146358      -15.557504
 C         -22.618393      -63.420517      -17.652292
 C         -23.698643      -63.548683      -18.683605
 C         -23.124311      -63.643669      -16.261236
 C         -24.798437      -64.648285      -18.477112
 C         -24.071087      -64.852119      -16.055908
 C         -25.237345      -64.937546      -16.982540
 H         -23.191156      -63.800953      -19.594980
 H         -24.203810      -62.588825      -18.716827
 H         -22.288879      -63.575165      -15.649113
 H         -23.785610      -62.793919      -16.094360
 H         -24.429583      -65.628166      -18.806948
 H         -25.581736      -64.509369      -19.145048
 H         -24.498016      -64.706879      -15.019279
 H         -23.363691      -65.722931      -16.104237
 H         -25.742859      -65.874054      -17.075731
 H         -26.032629      -64.233917      -16.737530
