20
 generated by VMD
 C         -67.581200     -191.746460      -66.449524
 N         -66.787102     -191.564865      -67.249290
 H         -70.259186     -189.786957      -66.251099
 H         -68.260239     -191.659164      -65.653679
 C         -71.054031     -189.948273      -65.558014
 C         -72.006477     -191.089371      -65.745560
 C         -71.076416     -189.235596      -64.245148
 C         -73.340332     -191.068817      -65.010918
 C         -72.476051     -189.225967      -63.647686
 C         -73.071770     -190.586334      -63.519848
 H         -71.473236     -192.074020      -65.549294
 H         -72.334557     -190.996445      -66.845993
 H         -70.459358     -189.802567      -63.566616
 H         -70.682976     -188.197495      -64.305794
 H         -73.777527     -192.031296      -64.925621
 H         -74.124786     -190.540863      -65.568550
 H         -73.143257     -188.593414      -64.193726
 H         -72.532433     -188.727539      -62.705894
 H         -72.286285     -191.086792      -62.974487
 H         -74.057289     -190.755493      -62.962048
