20
 generated by VMD
 C         -46.741268     -125.060539      -38.297329
 N         -47.568264     -124.807701      -37.498131
 H         -44.761185     -122.272446      -37.703922
 H         -46.061497     -125.602112      -38.966698
 C         -44.719612     -122.310249      -38.735031
 C         -43.470486     -122.592972      -39.442455
 C         -45.821041     -121.388885      -39.419941
 C         -43.853287     -123.181396      -40.903980
 C         -46.189400     -121.993690      -40.772945
 C         -44.982914     -122.307732      -41.643654
 H         -42.947872     -123.390205      -38.841805
 H         -42.781342     -121.717270      -39.533115
 H         -46.699764     -121.339554      -38.807018
 H         -45.420971     -120.380539      -39.539303
 H         -44.066479     -124.263100      -40.979233
 H         -43.051914     -123.043335      -41.624660
 H         -46.847267     -121.356804      -41.457306
 H         -46.696346     -123.078545      -40.655926
 H         -45.341152     -122.988464      -42.426449
 H         -44.550621     -121.395988      -42.100079
