20
 generated by VMD
 C         -50.051838     -144.396500      -44.319050
 N         -49.283852     -143.812256      -45.046429
 H         -52.395554     -142.557373      -45.749798
 H         -50.810619     -144.958176      -43.823410
 C         -52.976719     -142.122162      -46.585052
 C         -52.314419     -142.000443      -47.909847
 C         -54.332546     -141.503372      -46.434940
 C         -53.235584     -142.489014      -49.013699
 C         -55.284306     -141.972748      -47.588608
 C         -54.642357     -141.796722      -48.965446
 H         -51.307964     -142.493561      -47.870167
 H         -52.012348     -140.952530      -48.116299
 H         -54.850925     -141.742554      -45.456219
 H         -54.294327     -140.440140      -46.445129
 H         -53.507999     -143.448410      -48.865067
 H         -52.740765     -142.433334      -49.950706
 H         -56.144745     -141.323044      -47.707748
 H         -55.562138     -142.962341      -47.267277
 H         -55.296864     -142.271683      -49.637367
 H         -54.549511     -140.794891      -49.258011
