20
 generated by VMD
 C         -29.161657      -81.284904      -27.603045
 N         -29.882673      -80.396713      -27.611683
 H         -28.443903      -82.761261      -23.989731
 H         -28.468571      -82.078491      -27.912737
 C         -29.402273      -83.208107      -23.768040
 C         -29.715048      -83.583908      -22.377470
 C         -29.956341      -83.912376      -24.903893
 C         -31.319620      -83.830460      -22.299047
 C         -31.463655      -83.820847      -24.727720
 C         -31.798534      -84.657768      -23.458645
 H         -29.409433      -82.663582      -21.810661
 H         -29.114653      -84.474350      -22.122965
 H         -29.746861      -83.408623      -25.839258
 H         -29.526657      -84.887466      -24.966343
 H         -31.728184      -82.884583      -22.369417
 H         -31.301977      -84.380684      -21.293230
 H         -32.067963      -84.246033      -25.553461
 H         -31.894136      -82.888573      -24.545292
 H         -32.828739      -84.907547      -23.264332
 H         -31.360268      -85.654495      -23.538185
