20
 generated by VMD
 C         -30.783026      -77.976936      -25.621372
 N         -31.815004      -77.706299      -26.189768
 H         -29.370230      -78.107971      -22.775005
 H         -29.787382      -78.252548      -25.516508
 C         -28.910177      -79.067406      -23.059399
 C         -27.478636      -79.305664      -23.381338
 C         -29.722750      -80.222511      -22.639910
 C         -26.789251      -79.844986      -22.128365
 C         -29.087065      -80.878807      -21.444904
 C         -27.541086      -81.047920      -21.518227
 H         -26.943762      -78.350014      -23.635160
 H         -27.538282      -80.145935      -24.155527
 H         -30.702625      -79.851860      -22.494579
 H         -29.761940      -80.912956      -23.565411
 H         -26.728416      -79.194717      -21.274065
 H         -25.694332      -80.007347      -22.364031
 H         -29.656408      -81.900948      -21.240931
 H         -29.312162      -80.223488      -20.593649
 H         -27.080563      -81.321014      -20.595396
 H         -27.375502      -81.854660      -22.135536
