20
 generated by VMD
 C         -19.801702      -61.465763      -16.775246
 N         -19.758371      -60.497002      -16.123629
 H         -22.074173      -62.261646      -18.272818
 H         -19.781187      -62.307293      -17.572939
 C         -22.800671      -62.934517      -17.775682
 C         -24.039778      -63.305599      -18.558836
 C         -22.845591      -62.936790      -16.283331
 C         -24.634506      -64.660835      -18.192808
 C         -23.475121      -64.293213      -15.853360
 C         -24.714436      -64.771309      -16.645163
 H         -23.805782      -63.334705      -19.621643
 H         -24.867014      -62.540398      -18.438103
 H         -21.901285      -62.672909      -15.870092
 H         -23.611353      -62.112976      -15.975076
 H         -23.873793      -65.462158      -18.646299
 H         -25.678862      -64.765808      -18.612217
 H         -23.802679      -64.164238      -14.824046
 H         -22.733589      -65.058708      -15.662099
 H         -24.840355      -65.838852      -16.539774
 H         -25.676214      -64.279396      -16.318363
