20
 generated by VMD
 C         -28.080734      -83.327095      -27.335987
 N         -27.288218      -83.438011      -26.533041
 H         -31.052094      -84.408844      -26.444664
 H         -28.767908      -83.331879      -28.253176
 C         -31.591572      -85.174309      -25.787155
 C         -31.627779      -85.011139      -24.308517
 C         -32.199337      -86.419785      -26.434996
 C         -32.610455      -85.865112      -23.556614
 C         -33.302757      -86.998581      -25.675108
 C         -32.907784      -87.209030      -24.181126
 H         -31.661077      -84.014572      -23.908285
 H         -30.596224      -85.239670      -24.082651
 H         -32.488319      -86.245384      -27.481737
 H         -31.441677      -87.162704      -26.384098
 H         -33.500797      -85.232315      -23.499897
 H         -32.108665      -86.055641      -22.520458
 H         -33.559860      -88.091080      -25.960373
 H         -34.269318      -86.458664      -25.676056
 H         -33.932606      -87.607346      -23.748053
 H         -32.136383      -88.062515      -23.944101
