20
 generated by VMD
 C         -47.425461     -138.410172      -45.698677
 N         -47.087021     -138.157516      -46.835983
 H         -50.510876     -138.190262      -44.525665
 H         -47.648865     -138.459717      -44.626762
 C         -51.447514     -138.538986      -44.927036
 C         -51.666199     -138.848892      -46.381264
 C         -52.645535     -138.086914      -44.255497
 C         -52.750374     -139.926910      -46.492844
 C         -53.868172     -139.013443      -44.487144
 C         -53.999516     -139.505905      -45.858009
 H         -50.846088     -139.281799      -46.885178
 H         -51.843544     -137.942612      -47.041267
 H         -52.468143     -138.033463      -43.183758
 H         -52.892776     -137.121140      -44.647316
 H         -52.429779     -140.913620      -46.125549
 H         -52.858803     -140.112778      -47.596775
 H         -54.858532     -138.598221      -44.097935
 H         -53.707470     -139.789825      -43.856888
 H         -54.858799     -140.386078      -45.743389
 H         -54.429451     -138.607971      -46.302860
