20
 generated by VMD
 C         -49.954479     -129.053955      -42.961514
 N         -50.680569     -128.525253      -43.726608
 H         -48.506828     -127.981155      -39.624870
 H         -49.318005     -129.478745      -42.178837
 C         -47.727127     -128.074417      -40.348812
 C         -46.640373     -129.070221      -39.975616
 C         -47.395786     -126.819893      -41.124962
 C         -45.510941     -129.189575      -40.995892
 C         -46.331799     -126.956154      -42.137062
 C         -45.191330     -127.908165      -41.665123
 H         -47.139015     -130.045685      -39.925026
 H         -46.160599     -128.829941      -39.014637
 H         -48.267735     -126.509933      -41.566048
 H         -47.131889     -126.147736      -40.237709
 H         -45.605927     -130.024170      -41.767277
 H         -44.544895     -129.595032      -40.623714
 H         -45.886589     -125.978996      -42.373047
 H         -46.617668     -127.302788      -43.099972
 H         -44.402653     -128.102539      -42.426311
 H         -44.682148     -127.262215      -40.849838
