20
 generated by VMD
 C         -61.207539     -156.106308      -54.737457
 N         -60.543362     -155.985703      -55.658272
 H         -59.522770     -155.952362      -51.653240
 H         -61.899067     -156.123062      -53.949726
 C         -58.455208     -156.012161      -51.430882
 C         -57.612293     -154.957901      -50.748047
 C         -57.784538     -157.092239      -52.096935
 C         -56.250900     -155.376297      -50.123119
 C         -56.480537     -157.469299      -51.536331
 C         -55.578320     -156.223190      -51.163605
 H         -58.300545     -154.435440      -50.004585
 H         -57.267376     -154.226227      -51.596706
 H         -58.451241     -157.935074      -51.969494
 H         -57.686260     -156.994217      -53.199764
 H         -56.573948     -155.868027      -49.141220
 H         -55.524113     -154.672577      -49.663021
 H         -55.767189     -157.971619      -52.188725
 H         -56.591106     -158.230087      -50.666607
 H         -54.563759     -156.688446      -50.825321
 H         -55.396671     -155.656647      -52.034309
