20
 generated by VMD
 C          -0.857634      -13.431402        0.842887
 N          -0.268090      -13.292003       -0.099599
 H          -4.573333      -13.332493        2.269547
 H          -5.572985      -13.428512        0.712363
 C          -5.213639      -14.006122        1.576249
 C          -6.426878      -14.528869        2.436261
 C          -4.452431      -15.169131        1.080781
 C          -7.283590      -15.663084        1.753080
 C          -5.231546      -16.277592        0.426484
 C          -6.303401      -16.805714        1.325423
 H          -6.978705      -13.613655        2.799588
 H          -5.975291      -14.982529        3.336148
 H          -3.667398      -14.748063        0.395136
 H          -3.817274      -15.638410        1.970235
 H          -7.880252      -15.358515        0.931078
 H          -7.958087      -16.082928        2.489641
 H          -4.554249      -17.046131        0.119410
 H          -5.630426      -15.900596       -0.503116
 H          -6.923078      -17.587961        0.872670
 H          -5.930177      -17.240692        2.269468
