20
 generated by VMD
 C         -27.509520      -81.179314      -27.327284
 N         -28.522409      -81.678886      -27.623089
 H         -30.113136      -83.745140      -25.708355
 H         -26.619814      -80.651154      -26.866901
 C         -30.811802      -84.226021      -24.983484
 C         -30.571722      -84.133919      -23.547457
 C         -31.507132      -85.320465      -25.613096
 C         -31.808605      -84.633698      -22.754889
 C         -32.692192      -85.810722      -24.777792
 C         -32.287945      -85.997353      -23.309423
 H         -30.381002      -83.073204      -23.310038
 H         -29.605551      -84.717247      -23.227385
 H         -31.880444      -84.740379      -26.539215
 H         -30.904303      -86.202164      -25.846556
 H         -32.648186      -83.882362      -22.889179
 H         -31.552105      -84.514595      -21.665236
 H         -33.290321      -86.691086      -25.162006
 H         -33.461098      -85.042694      -24.582029
 H         -33.148979      -86.214806      -22.629005
 H         -31.522736      -86.730339      -23.171236
