20
 generated by VMD
 C         -65.305855     -176.707901      -56.042389
 N         -65.680824     -177.430130      -55.208443
 H         -63.854443     -174.640335      -58.880299
 H         -64.926064     -176.111954      -56.837986
 C         -64.252914     -173.716019      -59.395905
 C         -65.293633     -172.794556      -58.716671
 C         -63.727684     -173.255966      -60.713963
 C         -64.617081     -171.454163      -58.653229
 C         -63.123367     -171.851486      -60.662811
 C         -64.145210     -170.934021      -60.028233
 H         -65.442917     -173.337082      -57.769905
 H         -66.227699     -172.771729      -59.206738
 H         -62.893585     -173.873581      -61.057945
 H         -64.355927     -173.259186      -61.663811
 H         -63.772808     -171.318726      -57.978115
 H         -65.465149     -170.854263      -58.333031
 H         -62.877869     -171.459259      -61.600853
 H         -62.140816     -171.894409      -60.139172
 H         -63.669098     -169.943451      -59.871849
 H         -65.028564     -170.696564      -60.739601
