20
 generated by VMD
 C         -40.899395     -104.084305      -36.633518
 N         -41.520432     -105.004585      -36.295849
 H         -39.166061     -104.858047      -33.607094
 H         -40.234570     -103.359695      -37.137547
 C         -38.741699     -105.706131      -33.123093
 C         -37.404911     -105.847466      -32.536987
 C         -39.415737     -107.000473      -33.360996
 C         -37.490742     -106.738373      -31.319307
 C         -39.542900     -107.913864      -32.199364
 C         -38.119469     -108.121773      -31.466654
 H         -36.993713     -104.849487      -32.164001
 H         -36.765038     -106.147545      -33.383438
 H         -40.358517     -107.091026      -33.869316
 H         -38.755943     -107.504372      -34.099823
 H         -38.018959     -106.171104      -30.561005
 H         -36.495850     -106.913422      -30.846838
 H         -39.973255     -108.832031      -32.467361
 H         -40.173592     -107.507416      -31.403440
 H         -38.195045     -108.579422      -30.397360
 H         -37.540264     -108.834091      -32.003155
