20
 generated by VMD
 C         -60.193485     -156.525406      -55.691643
 N         -60.851707     -155.568619      -55.958351
 H         -59.650578     -157.681824      -52.988777
 H         -59.591293     -157.342575      -55.249905
 C         -58.712738     -157.970947      -52.713051
 C         -57.776978     -156.805389      -52.595207
 C         -58.351135     -159.333878      -52.197048
 C         -57.338722     -156.563538      -51.160885
 C         -57.875576     -159.098862      -50.727036
 C         -56.773571     -157.942368      -50.562771
 H         -58.404247     -155.885162      -52.922672
 H         -56.823833     -156.798553      -53.173786
 H         -59.237007     -160.048096      -52.292309
 H         -57.497013     -159.772781      -52.740891
 H         -58.179497     -156.237808      -50.485409
 H         -56.540943     -155.705460      -51.205051
 H         -57.431728     -160.070099      -50.337936
 H         -58.688416     -158.677216      -50.099216
 H         -56.636314     -157.798981      -49.515984
 H         -55.840450     -158.355148      -51.036221
