20
 generated by VMD
 C         -60.166611     -157.319000      -56.257526
 N         -59.544834     -158.287506      -56.598282
 H         -60.114452     -157.385956      -52.696465
 H         -60.689423     -156.487671      -55.790100
 C         -59.398182     -158.163834      -52.920364
 C         -58.002995     -157.856888      -52.278076
 C         -59.759430     -159.649841      -53.185860
 C         -57.781723     -158.754852      -51.120937
 C         -59.380615     -160.627151      -51.999542
 C         -57.983025     -160.279907      -51.507061
 H         -57.968464     -156.814041      -51.921207
 H         -57.209660     -158.127243      -53.085342
 H         -60.852890     -159.852142      -53.330929
 H         -59.140438     -160.019119      -53.995861
 H         -58.350536     -158.655487      -50.122650
 H         -56.683071     -158.517899      -50.798702
 H         -59.594296     -161.656097      -52.360027
 H         -60.016827     -160.529007      -51.022144
 H         -57.750462     -160.922379      -50.504536
 H         -57.309551     -160.680695      -52.264015
