20
 generated by VMD
 C         -21.257874      -52.011883      -10.231102
 N         -21.440804      -53.115788      -10.691017
 H         -19.675140      -50.160580      -13.013375
 H         -20.973946      -51.299652       -9.643610
 C         -18.679813      -50.484058      -12.909151
 C         -18.158514      -51.769745      -13.412477
 C         -17.697048      -49.544323      -12.190700
 C         -16.900351      -51.659515      -14.244967
 C         -16.305614      -49.600624      -12.912148
 C         -15.906146      -51.044758      -13.320920
 H         -18.930544      -52.190845      -14.035128
 H         -18.110697      -52.495789      -12.550512
 H         -18.232147      -48.609196      -12.379245
 H         -17.614687      -49.763233      -11.142568
 H         -17.101706      -50.890556      -15.023536
 H         -16.666088      -52.668468      -14.650363
 H         -15.469119      -49.252125      -12.284763
 H         -16.367586      -48.955608      -13.768331
 H         -14.945729      -50.897842      -13.890246
 H         -15.648026      -51.676239      -12.405460
