20
 generated by VMD
 C         -13.479519      -29.560898       -7.349769
 N         -13.530339      -29.137581       -8.381367
 H         -11.344770      -30.113312       -4.790298
 H         -10.016324      -30.232796       -3.681292
 C         -10.651100      -30.887577       -4.338814
 C          -9.830745      -31.391991       -5.488184
 C         -11.281949      -32.059059       -3.549688
 C          -8.767000      -32.373753       -4.954240
 C         -10.217539      -32.958622       -2.928368
 C          -9.364406      -33.492252       -4.043236
 H          -9.425916      -30.547976       -5.991505
 H         -10.456419      -32.034676       -6.191176
 H         -11.999063      -31.631788       -2.822428
 H         -11.896941      -32.695148       -4.232727
 H          -8.137296      -31.708670       -4.287657
 H          -8.108070      -32.726486       -5.758031
 H         -10.623788      -33.814312       -2.279119
 H          -9.596863      -32.354923       -2.331123
 H          -8.534955      -34.157364       -3.634133
 H          -9.958432      -34.164909       -4.682938
