20
 generated by VMD
 C         -12.746417      -31.212469       -8.261624
 N         -12.291132      -30.263418       -7.945867
 H         -11.608011      -33.653290       -7.428652
 H         -12.430832      -32.928123       -6.093811
 C         -11.736955      -33.723141       -6.391480
 C         -10.350709      -33.335514       -5.787178
 C         -12.229954      -35.101048       -5.998454
 C         -10.417140      -33.621059       -4.287764
 C         -12.266824      -35.425404       -4.531708
 C         -10.872766      -35.092865       -3.899210
 H         -10.149076      -32.302689       -5.943339
 H          -9.584783      -33.927029       -6.319108
 H         -13.252456      -35.122623       -6.382883
 H         -11.660570      -35.816540       -6.620578
 H         -11.071933      -32.928631       -3.730026
 H          -9.504824      -33.505421       -3.728865
 H         -12.538494      -36.447323       -4.320539
 H         -13.091067      -34.802700       -4.036732
 H         -10.965637      -35.042282       -2.790920
 H         -10.122246      -35.861813       -4.162144
