20
 generated by VMD
 C         -22.824282      -52.447617      -12.078925
 N         -23.537455      -52.439957      -11.225724
 H         -19.945833      -53.525158      -14.403104
 H         -21.804081      -52.299084      -12.660052
 C         -18.945564      -53.214039      -13.987779
 C         -18.181231      -52.102322      -14.545082
 C         -18.123823      -54.202911      -13.258752
 C         -16.655134      -52.325455      -14.526099
 C         -17.074156      -53.583363      -12.359796
 C         -16.262596      -52.423935      -13.069557
 H         -18.434355      -51.156105      -14.059450
 H         -18.516680      -51.982910      -15.617689
 H         -18.780615      -54.932510      -12.680942
 H         -17.551891      -54.791676      -13.989779
 H         -16.243828      -51.463905      -15.046163
 H         -16.392471      -53.201370      -15.124528
 H         -16.358625      -54.339794      -12.107263
 H         -17.508188      -53.252666      -11.344813
 H         -16.473928      -51.484348      -12.539116
 H         -15.199577      -52.712395      -13.134493
