20
 generated by VMD
 C         -54.808342     -148.391785      -45.179810
 N         -54.520672     -148.595490      -44.104115
 H         -54.652359     -148.079941      -48.925266
 H         -55.262245     -148.206802      -46.167217
 C         -54.436825     -147.093765      -49.345028
 C         -53.226601     -146.800659      -50.048634
 C         -54.983028     -145.986984      -48.573177
 C         -53.322502     -145.584167      -50.835178
 C         -55.092598     -144.673767      -49.410023
 C         -53.851791     -144.353180      -50.120762
 H         -53.030888     -147.623276      -50.833572
 H         -52.368977     -146.891953      -49.414852
 H         -56.019665     -146.252502      -48.077259
 H         -54.263565     -145.815582      -47.738506
 H         -53.952484     -145.745987      -51.739468
 H         -52.297157     -145.242249      -51.231655
 H         -55.357174     -143.876511      -48.762562
 H         -55.925591     -144.797546      -50.276978
 H         -53.969765     -143.493073      -50.746075
 H         -53.068302     -144.081390      -49.391937
