20
 generated by VMD
 C         -41.830208     -120.249977      -34.519547
 N         -42.334343     -121.290367      -34.274391
 H         -43.622036     -119.925102      -37.399200
 H         -41.425259     -119.186989      -34.524712
 C         -43.928276     -119.216362      -38.191383
 C         -43.122749     -118.911964      -39.443924
 C         -45.231937     -118.453583      -38.091137
 C         -43.969547     -118.828407      -40.715683
 C         -46.008316     -118.573410      -39.462082
 C         -45.249210     -117.986229      -40.544800
 H         -42.286278     -119.575760      -39.516716
 H         -42.587921     -117.963638      -39.355751
 H         -45.702698     -118.935997      -37.295776
 H         -45.131485     -117.405998      -37.748299
 H         -44.157616     -119.882988      -40.988453
 H         -43.403645     -118.428528      -41.515541
 H         -46.929523     -117.786964      -39.361092
 H         -46.492302     -119.564209      -39.827080
 H         -45.750832     -117.951881      -41.519932
 H         -44.929073     -116.916321      -40.538406
