20
 generated by VMD
 C         -57.448242     -162.226242      -56.223961
 N         -57.164867     -162.163544      -57.305668
 H         -59.750950     -165.128799      -55.034565
 H         -57.801460     -162.261887      -55.197609
 C         -60.642723     -164.630737      -54.770203
 C         -60.906609     -164.420410      -53.337383
 C         -61.689957     -164.520676      -55.824615
 C         -61.918457     -163.262009      -53.135296
 C         -62.930782     -163.638290      -55.378853
 C         -63.126343     -163.714447      -53.903488
 H         -59.997139     -164.323578      -52.791641
 H         -61.314693     -165.321564      -52.835186
 H         -61.224583     -164.347931      -56.822826
 H         -62.106617     -165.558670      -55.916862
 H         -61.542694     -162.261505      -53.256325
 H         -62.275021     -163.372604      -52.175423
 H         -63.818035     -163.873077      -55.984810
 H         -62.681114     -162.614685      -55.870300
 H         -64.041290     -163.080063      -53.807362
 H         -63.365021     -164.776901      -53.751789
