20
 generated by VMD
 C         -39.462536     -105.585503      -37.201508
 N         -40.531841     -105.194237      -37.057732
 H         -39.319721     -107.999947      -35.270458
 H         -38.474522     -105.946884      -37.525639
 C         -39.511410     -108.530594      -34.311428
 C         -38.329037     -108.540779      -33.316635
 C         -40.712303     -109.461205      -34.213753
 C         -38.888424     -108.552979      -31.945942
 C         -41.076248     -109.516968      -32.701027
 C         -40.007236     -109.566940      -31.731810
 H         -37.706268     -107.705818      -33.457767
 H         -37.720234     -109.404442      -33.543655
 H         -41.515888     -109.096352      -34.969616
 H         -40.272861     -110.460716      -34.552135
 H         -39.324226     -107.595360      -31.506361
 H         -38.117298     -108.901474      -31.214783
 H         -41.620419     -110.407333      -32.554241
 H         -41.609173     -108.592628      -32.401730
 H         -40.451954     -109.484154      -30.772038
 H         -39.620743     -110.643990      -31.810438
