20
 generated by VMD
 C         -65.200058     -176.034988      -55.842773
 N         -65.058357     -177.158691      -55.706097
 H         -65.042137     -174.537659      -59.526264
 H         -65.246826     -174.993774      -56.048958
 C         -64.494049     -173.642380      -59.290459
 C         -65.262192     -172.704132      -58.536079
 C         -63.827530     -173.177490      -60.502369
 C         -64.547531     -171.232254      -58.537674
 C         -63.060818     -171.929306      -60.441570
 C         -64.064911     -170.838516      -60.019905
 H         -65.465889     -172.956696      -57.560238
 H         -66.248154     -172.458862      -59.101952
 H         -63.172726     -174.061966      -60.730225
 H         -64.501442     -173.326630      -61.283115
 H         -63.703777     -171.259506      -57.801090
 H         -65.208824     -170.422729      -58.183041
 H         -62.718353     -171.666824      -61.487045
 H         -62.188042     -172.018936      -59.813625
 H         -63.675999     -169.798798      -60.065853
 H         -64.912498     -170.821442      -60.666862
