20
 generated by VMD
 C         -67.213036     -191.566162      -66.212234
 N         -67.195488     -191.060333      -67.248192
 H         -70.259117     -190.102478      -66.406059
 H         -67.311523     -192.247696      -65.364876
 C         -71.006538     -190.141907      -65.629486
 C         -72.080452     -191.216888      -65.559929
 C         -70.996513     -189.107590      -64.522720
 C         -73.386482     -190.803238      -64.957146
 C         -72.182610     -189.159088      -63.454956
 C         -73.031677     -190.383865      -63.466908
 H         -71.674835     -192.115067      -64.947739
 H         -72.169472     -191.679276      -66.519882
 H         -69.933670     -188.999710      -64.080475
 H         -71.014305     -188.106277      -65.008896
 H         -74.049843     -191.702927      -64.979431
 H         -73.767441     -189.965042      -65.533447
 H         -72.739761     -188.264313      -63.706478
 H         -71.587212     -189.084991      -62.529869
 H         -72.544731     -191.197601      -62.853844
 H         -73.881241     -190.181458      -62.809387
