20
 generated by VMD
 C         -50.011005     -144.151581      -44.343311
 N         -49.285946     -143.732407      -45.163616
 H         -52.368443     -141.667526      -45.600151
 H         -50.708248     -144.387207      -43.512913
 C         -52.967163     -141.869385      -46.495453
 C         -52.266552     -141.945755      -47.936256
 C         -54.348431     -141.461945      -46.352089
 C         -53.226807     -142.415100      -49.010189
 C         -55.163383     -141.969086      -47.473980
 C         -54.562561     -141.730835      -48.767117
 H         -51.380802     -142.607803      -47.847256
 H         -51.827209     -141.053497      -48.304470
 H         -54.718773     -141.576950      -45.333775
 H         -54.169094     -140.339355      -46.303139
 H         -53.542126     -143.570557      -49.071194
 H         -52.805218     -142.192795      -50.053043
 H         -56.195496     -141.524536      -47.573261
 H         -55.262928     -143.004486      -47.159641
 H         -55.254978     -142.115860      -49.603069
 H         -54.295288     -140.609146      -48.988968
