20
 generated by VMD
 C         -24.824179      -70.459641      -16.524885
 N         -25.027267      -70.876068      -15.477272
 H         -23.720982      -68.112724      -18.899300
 H         -24.401634      -70.106918      -17.524376
 C         -24.444946      -68.601318      -19.584478
 C         -23.844566      -69.337273      -20.736441
 C         -25.878887      -67.991165      -19.610506
 C         -24.737783      -70.299950      -21.517677
 C         -26.763494      -69.168839      -20.287443
 C         -26.172007      -69.676193      -21.595446
 H         -23.063240      -69.949997      -20.334965
 H         -23.481035      -68.690971      -21.620214
 H         -26.180309      -67.861977      -18.591555
 H         -25.939138      -66.985275      -19.992651
 H         -24.811979      -71.302109      -21.017399
 H         -24.452368      -70.582321      -22.508448
 H         -27.740171      -68.708290      -20.473440
 H         -26.827774      -69.934540      -19.494061
 H         -26.796585      -70.484756      -21.992643
 H         -26.148809      -68.789154      -22.216682
