20
 generated by VMD
 C         -26.806606      -71.729424      -17.572247
 N         -26.820990      -72.790115      -17.088795
 H         -24.355186      -70.098785      -18.628244
 H         -26.889011      -70.766640      -18.092903
 C         -24.902548      -70.228188      -19.556314
 C         -24.171711      -71.189682      -20.417067
 C         -25.726437      -69.214211      -20.322857
 C         -25.052870      -71.857727      -21.360434
 C         -26.707115      -69.935745      -21.277100
 C         -25.977657      -71.055183      -22.134293
 H         -23.614435      -71.892143      -19.603210
 H         -23.310457      -70.635124      -20.934464
 H         -26.271442      -68.562958      -19.665937
 H         -25.039221      -68.533958      -20.856525
 H         -25.765646      -72.587357      -20.847258
 H         -24.378029      -72.467751      -21.948730
 H         -27.194311      -69.287857      -21.956013
 H         -27.411926      -70.486984      -20.771202
 H         -26.849192      -71.713051      -22.478466
 H         -25.459480      -70.834740      -23.091665
