20
 generated by VMD
 C         -48.518131     -140.745087      -45.402790
 N         -47.413288     -140.608704      -45.434044
 H         -51.269272     -138.621292      -45.887997
 H         -49.603470     -140.725677      -45.455956
 C         -52.016174     -139.401688      -46.110878
 C         -52.530502     -139.334351      -47.424507
 C         -53.110500     -139.555466      -45.033527
 C         -53.368790     -140.569763      -47.800171
 C         -53.795616     -140.849442      -45.293030
 C         -54.419426     -140.841522      -46.643879
 H         -51.598419     -139.343628      -48.016563
 H         -53.106781     -138.365585      -47.594543
 H         -52.727314     -139.648087      -44.002773
 H         -53.812000     -138.692352      -45.047741
 H         -52.799603     -141.452469      -47.933220
 H         -53.760384     -140.344467      -48.732281
 H         -54.561630     -141.178406      -44.632111
 H         -53.101547     -141.738007      -45.265034
 H         -54.838974     -141.805908      -46.900753
 H         -55.290199     -140.149170      -46.558666
