20
 generated by VMD
 C         -40.357445     -105.974220      -37.009209
 N         -39.921810     -106.790451      -37.700642
 H         -38.480350     -108.089508      -34.827358
 H         -40.856880     -105.143623      -36.598934
 C         -39.152580     -108.640846      -34.158375
 C         -38.468712     -109.589050      -33.102318
 C         -40.531380     -108.911247      -34.475399
 C         -39.423275     -109.869125      -31.965631
 C         -41.374847     -109.194885      -33.248566
 C         -40.777172     -110.319534      -32.412018
 H         -37.563698     -109.131584      -32.641270
 H         -38.271919     -110.601303      -33.565987
 H         -40.981022     -108.014641      -35.000671
 H         -40.585629     -109.658043      -35.205345
 H         -39.673626     -109.106766      -31.278881
 H         -38.938702     -110.663536      -31.418041
 H         -42.337654     -109.498703      -33.690014
 H         -41.681358     -108.251854      -32.671078
 H         -41.360062     -110.627708      -31.512293
 H         -40.675804     -111.243355      -33.080605
