20
 generated by VMD
 C         -31.290926      -78.246727      -26.362270
 N         -31.605297      -77.926994      -27.443449
 H         -29.278828      -79.668991      -24.534945
 H         -31.074829      -78.335640      -25.269184
 C         -29.053583      -80.215637      -23.585747
 C         -27.662840      -80.187302      -23.012213
 C         -30.061438      -81.244682      -22.962296
 C         -27.231325      -80.981888      -21.812756
 C         -29.636372      -81.931206      -21.735575
 C         -28.135794      -82.185104      -21.722862
 H         -27.417728      -79.040642      -22.958788
 H         -26.929014      -80.471306      -23.839050
 H         -31.030958      -80.680092      -22.823418
 H         -30.385752      -82.024628      -23.645218
 H         -27.283323      -80.378494      -20.862331
 H         -26.142387      -81.294807      -21.898436
 H         -30.121021      -82.925003      -21.757282
 H         -29.942841      -81.443367      -20.830462
 H         -27.881937      -82.683868      -20.787697
 H         -28.042568      -82.947762      -22.558029
