20
 generated by VMD
 C         -12.431263      -27.430052       -4.675872
 N         -13.253314      -28.168869       -4.809164
 H         -10.825399      -30.291668       -2.790019
 H         -10.830179      -28.704000       -3.669172
 C         -10.122355      -29.520115       -3.314798
 C          -9.533694      -30.229843       -4.463779
 C          -9.115973      -28.807089       -2.417062
 C          -8.670300      -29.310144       -5.288225
 C          -8.134544      -27.994194       -3.140755
 C          -7.609869      -28.652296       -4.432902
 H         -10.405301      -30.582592       -5.086170
 H          -8.887376      -31.006525       -4.168846
 H          -9.676805      -28.199509       -1.716286
 H          -8.535331      -29.619907       -1.909151
 H          -9.335700      -28.592379       -5.756770
 H          -8.201684      -29.923954       -6.052533
 H          -7.226167      -27.855001       -2.482797
 H          -8.492630      -27.065664       -3.511359
 H          -7.093556      -27.883764       -4.986791
 H          -6.724870      -29.320272       -4.172483
