20
 generated by VMD
 C         -53.317490     -147.529373      -45.549404
 N         -54.416454     -147.598587      -45.112179
 H         -54.321804     -147.711014      -48.241158
 H         -52.356609     -147.619507      -46.068642
 C         -54.399895     -146.718063      -48.698006
 C         -53.217052     -146.548920      -49.642010
 C         -55.088264     -145.526123      -48.055458
 C         -53.479252     -145.326248      -50.486961
 C         -55.084393     -144.391953      -49.016777
 C         -53.878887     -144.122223      -49.733772
 H         -53.109180     -147.494278      -50.218769
 H         -52.326962     -146.449951      -48.999500
 H         -56.112343     -145.869431      -47.883728
 H         -54.661018     -145.262695      -47.064613
 H         -54.244755     -145.607391      -51.306641
 H         -52.480042     -145.106888      -50.815479
 H         -55.494732     -143.350540      -48.554447
 H         -55.827065     -144.731705      -49.691719
 H         -53.751011     -143.334900      -50.444775
 H         -53.084415     -144.069061      -48.973221
