20
 generated by VMD
 C          -9.944061      -24.565186        0.228850
 N         -10.502896      -25.076942       -0.591097
 H          -6.346087      -24.705128       -0.940612
 H          -8.034108      -24.614372       -1.010515
 C          -7.141315      -24.478365       -1.639706
 C          -7.105346      -25.536474       -2.778387
 C          -6.857163      -23.090380       -2.073079
 C          -8.071080      -25.150936       -3.945203
 C          -7.880178      -22.754280       -3.269445
 C          -7.687369      -23.787298       -4.465512
 H          -7.348294      -26.492422       -2.337619
 H          -6.115750      -25.687063       -3.175761
 H          -7.017057      -22.384897       -1.285809
 H          -5.764243      -22.945404       -2.299933
 H          -9.125691      -25.148724       -3.653915
 H          -7.994748      -25.916718       -4.758177
 H          -7.632253      -21.768726       -3.674117
 H          -8.916999      -22.672188       -2.918133
 H          -8.275602      -23.477592       -5.319105
 H          -6.646200      -23.732578       -4.881124
