20
 generated by VMD
 C         -70.810654     -181.515030      -64.234314
 N         -70.304131     -182.368683      -63.593765
 H         -68.636719     -181.243179      -60.997917
 H         -71.300552     -180.804001      -64.930084
 C         -67.619949     -180.764008      -60.745228
 C         -66.368423     -181.731842      -60.534306
 C         -67.260040     -179.401672      -60.446514
 C         -65.035934     -181.174866      -60.752529
 C         -65.929619     -178.913116      -60.875870
 C         -64.771614     -179.736816      -60.300262
 H         -66.544319     -182.520660      -61.237621
 H         -66.359344     -182.105209      -59.562294
 H         -67.983536     -178.695526      -60.962334
 H         -67.373367     -179.097214      -59.442322
 H         -64.978615     -181.056427      -61.865273
 H         -64.194542     -181.849380      -60.389103
 H         -65.812042     -177.855988      -60.581131
 H         -65.813927     -178.803192      -61.970551
 H         -63.845501     -179.266571      -60.799156
 H         -64.690422     -179.702545      -59.223686
