20
 generated by VMD
 C         -30.224930      -92.868973      -25.115801
 N         -30.370800      -93.766594      -25.804340
 H         -33.527107      -91.065521      -26.423443
 H         -30.216667      -92.035645      -24.468718
 C         -33.882065      -91.347366      -27.388184
 C         -35.083847      -92.174362      -27.598249
 C         -33.222630      -90.700356      -28.578485
 C         -36.106117      -91.601074      -28.560484
 C         -34.299316      -90.103096      -29.497963
 C         -35.316273      -91.139198      -29.817133
 H         -35.690300      -92.325333      -26.650726
 H         -34.733452      -93.158112      -27.959339
 H         -32.447830      -89.990570      -28.253517
 H         -32.801071      -91.523399      -29.118444
 H         -36.502319      -90.707123      -28.147757
 H         -36.959843      -92.252495      -28.937258
 H         -33.722542      -89.707565      -30.340681
 H         -34.602772      -89.288750      -28.865320
 H         -36.068985      -90.709435      -30.494370
 H         -34.828819      -91.970299      -30.306875
