20
 generated by VMD
 C         -19.380112      -50.004475       -9.299015
 N         -19.621044      -51.080467       -9.677702
 H         -16.834337      -47.679516       -9.918442
 H         -19.423094      -48.774570       -9.320934
 C         -16.694448      -47.997597      -10.988507
 C         -15.703039      -49.007523      -11.543885
 C         -17.247736      -47.149277      -12.073248
 C         -16.168112      -49.753742      -12.800031
 C         -17.951796      -48.116337      -13.057069
 C         -16.913029      -48.961327      -13.842036
 H         -15.408860      -49.807846      -10.793512
 H         -14.873162      -48.369530      -11.812425
 H         -17.914536      -46.415131      -11.662109
 H         -16.458149      -46.654526      -12.633948
 H         -16.945858      -50.512928      -12.449199
 H         -15.262321      -50.244438      -13.223219
 H         -18.572674      -47.476482      -13.776956
 H         -18.592703      -48.812603      -12.554773
 H         -17.541086      -49.606926      -14.498439
 H         -16.256039      -48.380131      -14.546317
