20
 generated by VMD
 C         -68.942749     -194.867905      -65.501541
 N         -68.635834     -194.435165      -64.493790
 H         -71.203758     -194.079910      -67.998604
 H         -69.309456     -195.431885      -66.366714
 C         -72.034904     -193.779282      -67.353012
 C         -71.720581     -192.529282      -66.492485
 C         -73.362167     -194.367294      -67.295982
 C         -72.828697     -192.218857      -65.471397
 C         -74.508621     -193.331482      -67.014252
 C         -74.102989     -192.029205      -66.252029
 H         -71.603317     -191.693649      -67.252655
 H         -70.775223     -192.525620      -66.121300
 H         -73.610634     -195.059631      -68.141273
 H         -73.283913     -195.173477      -66.598694
 H         -72.584846     -191.353195      -64.937080
 H         -72.840515     -193.042603      -64.729065
 H         -75.371826     -193.874100      -66.527092
 H         -74.927345     -192.983795      -67.937820
 H         -74.132919     -191.040314      -66.975662
 H         -74.889717     -191.892761      -65.580002
