20
 generated by VMD
 C         -40.350006     -116.973381      -34.350613
 N         -39.445583     -116.317276      -34.584846
 H         -41.467510     -115.724762      -37.829197
 H         -40.919743     -117.799957      -34.059532
 C         -42.538311     -115.969574      -37.962006
 C         -43.175568     -116.080200      -39.370464
 C         -43.279903     -116.028915      -36.679417
 C         -44.562939     -116.791641      -39.325920
 C         -44.515087     -116.883591      -36.802910
 C         -45.429165     -116.482986      -38.152996
 H         -42.579014     -116.652481      -40.133575
 H         -43.369591     -115.023567      -39.746189
 H         -42.646187     -116.359489      -35.882881
 H         -43.627434     -115.067444      -36.377831
 H         -44.312469     -117.869492      -39.337364
 H         -45.145329     -116.563316      -40.187157
 H         -45.157394     -116.723030      -35.826397
 H         -44.486404     -118.042526      -36.876831
 H         -46.306877     -117.030350      -37.980881
 H         -45.628555     -115.327957      -38.007015
