20
 generated by VMD
 C         -45.127438     -122.952171      -35.400578
 N         -45.592255     -123.964691      -35.161621
 H         -44.993946     -122.432541      -38.467392
 H         -44.918686     -121.981834      -35.670807
 C         -44.803707     -121.691284      -39.215000
 C         -43.430943     -121.385429      -39.553219
 C         -45.973408     -120.718948      -39.556023
 C         -43.369579     -120.728416      -41.042057
 C         -45.820881     -120.083351      -40.911003
 C         -44.362843     -119.570656      -41.068890
 H         -43.021389     -122.366997      -39.610321
 H         -42.869926     -120.628654      -38.893635
 H         -46.938900     -121.161819      -39.488140
 H         -45.906910     -120.024651      -38.761078
 H         -43.685680     -121.535141      -41.835400
 H         -42.360321     -120.271355      -41.136311
 H         -46.504784     -119.167480      -41.100620
 H         -45.969116     -120.828911      -41.784904
 H         -44.165573     -118.899033      -41.895172
 H         -44.091057     -118.962471      -40.247841
