20
 generated by VMD
 C         -67.759270     -185.813583      -67.225670
 N         -68.771553     -186.044861      -67.747063
 H         -68.578339     -187.899857      -64.607338
 H         -66.858536     -185.621918      -66.580887
 C         -69.206657     -187.849930      -63.772858
 C         -68.937004     -186.629288      -62.945492
 C         -70.716866     -188.274857      -63.856472
 C         -69.517525     -186.930359      -61.549522
 C         -71.326416     -188.342590      -62.455315
 C         -70.969139     -187.143250      -61.608414
 H         -69.291565     -185.697327      -63.425480
 H         -67.819199     -186.437561      -62.870388
 H         -71.334328     -187.483673      -64.365990
 H         -70.828316     -189.218689      -64.338692
 H         -69.365143     -186.213303      -60.728992
 H         -69.013321     -187.865509      -61.284904
 H         -71.110542     -189.390762      -62.016994
 H         -72.460442     -188.182175      -62.559902
 H         -71.297440     -186.197922      -62.021526
 H         -71.344933     -187.412506      -60.592232
