20
 generated by VMD
 C         -41.046249     -102.250542      -34.809509
 N         -41.498512     -102.000206      -35.862495
 H         -39.676441     -104.392456      -32.091579
 H         -40.373470     -102.539764      -34.054798
 C         -38.708530     -104.683205      -31.908705
 C         -37.659653     -104.020256      -32.853996
 C         -38.321297     -105.745369      -30.970537
 C         -36.480274     -103.624268      -32.041451
 C         -36.877056     -105.397011      -30.345354
 C         -35.905796     -104.887802      -31.378510
 H         -38.322868     -103.278908      -33.385738
 H         -37.264565     -104.662262      -33.660759
 H         -39.079960     -105.774300      -30.129993
 H         -38.335629     -106.719032      -31.325193
 H         -36.709217     -102.920746      -31.266193
 H         -35.697941     -103.173424      -32.672241
 H         -36.581959     -106.388992      -29.949539
 H         -36.974953     -104.712929      -29.539440
 H         -34.843246     -104.731110      -31.031448
 H         -35.746597     -105.596519      -32.184032
