20
 generated by VMD
 C         -13.446604      -30.792049       -8.307582
 N         -13.219825      -30.039543       -9.125121
 H         -11.161885      -31.814240       -6.127441
 H         -11.452151      -31.925232       -4.411135
 C         -11.109425      -32.540035       -5.276496
 C          -9.750744      -32.955688       -4.988250
 C         -12.132661      -33.628250       -5.424813
 C          -9.551592      -34.045490       -3.948764
 C         -11.916638      -34.715870       -4.363695
 C         -10.490586      -35.225586       -4.234923
 H          -9.131264      -32.139702       -4.730055
 H          -9.250824      -33.381878       -5.888404
 H         -13.185848      -33.331230       -5.493622
 H         -11.934403      -34.133038       -6.378628
 H          -9.737885      -33.583233       -3.013436
 H          -8.546599      -34.394669       -3.950300
 H         -12.567370      -35.625237       -4.591875
 H         -12.274895      -34.313290       -3.457693
 H         -10.424428      -36.047436       -3.476074
 H         -10.222781      -35.731739       -5.137068
