20
 generated by VMD
 C         -51.023781     -129.981018      -44.966515
 N         -51.694996     -129.277725      -45.578281
 H         -48.495987     -129.723953      -43.201382
 H         -50.438290     -130.701736      -44.420807
 C         -47.998985     -129.928665      -42.340511
 C         -47.960857     -131.162674      -41.611942
 C         -47.493275     -128.785736      -41.595928
 C         -46.540337     -131.506454      -41.053886
 C         -46.120144     -128.977020      -41.080612
 C         -45.951965     -130.294983      -40.312023
 H         -48.371704     -132.097733      -42.171165
 H         -48.639431     -131.014130      -40.770985
 H         -47.538490     -127.942245      -42.282269
 H         -48.155106     -128.598145      -40.594875
 H         -45.901772     -131.651367      -41.952442
 H         -46.811611     -132.452545      -40.592190
 H         -45.849922     -128.171951      -40.399418
 H         -45.359776     -129.018234      -41.823494
 H         -44.928776     -130.596573      -40.060020
 H         -46.452587     -130.177521      -39.367985
