20
 generated by VMD
 C         -21.034239      -52.096828      -10.969976
 N         -21.461088      -53.106277      -10.552338
 H         -19.817667      -50.308811      -13.134988
 H         -20.621771      -51.181698      -11.737168
 C         -18.848028      -50.651428      -13.009446
 C         -18.453215      -51.887470      -13.733263
 C         -17.825485      -50.010437      -12.103325
 C         -16.920416      -51.800823      -14.250851
 C         -16.436783      -49.940861      -12.722151
 C         -15.979291      -51.338444      -13.143638
 H         -19.100618      -52.051674      -14.567051
 H         -18.568663      -52.724739      -13.004762
 H         -18.117685      -48.956680      -11.885781
 H         -17.946144      -50.494591      -11.098922
 H         -16.839266      -51.251797      -15.221758
 H         -16.676502      -52.822174      -14.596594
 H         -15.709722      -49.631092      -11.989973
 H         -16.352737      -49.158875      -13.582614
 H         -14.962249      -51.329258      -13.507196
 H         -16.050226      -52.007935      -12.270568
