20
 generated by VMD
 C         -31.665108      -79.046074      -26.498343
 N         -30.966215      -78.122314      -26.718952
 H         -28.883663      -80.475739      -25.078173
 H         -32.406189      -79.665855      -26.048218
 C         -28.870062      -81.230820      -24.221134
 C         -27.672665      -81.261360      -23.374680
 C         -29.848160      -82.308907      -23.982695
 C         -28.031324      -81.237961      -21.803944
 C         -30.276430      -82.338165      -22.446775
 C         -29.082878      -82.245651      -21.371450
 H         -27.104715      -80.353317      -23.758152
 H         -27.073814      -82.072105      -23.765497
 H         -30.693806      -82.045052      -24.740660
 H         -29.420662      -83.227448      -24.324644
 H         -28.274258      -80.195633      -21.508005
 H         -27.203089      -81.592728      -21.281265
 H         -30.980089      -83.170395      -22.147184
 H         -30.868313      -81.377693      -22.525875
 H         -29.524036      -81.830978      -20.420519
 H         -28.585199      -83.314407      -21.257431
