20
 generated by VMD
 C         -38.016331     -109.772392      -36.359966
 N         -37.424046     -108.875504      -35.945866
 H         -40.380566     -112.761406      -36.560436
 H         -38.377136     -110.655434      -36.965984
 C         -41.375385     -112.659401      -36.154194
 C         -42.351360     -113.649681      -36.531834
 C         -41.679634     -111.526848      -35.292694
 C         -43.113384     -114.058510      -35.270828
 C         -42.324944     -112.002739      -33.982639
 C         -43.492317     -112.930450      -34.298752
 H         -41.812706     -114.512085      -36.995937
 H         -43.060951     -113.359344      -37.270824
 H         -40.695045     -111.200935      -34.940605
 H         -42.110882     -110.701202      -35.925861
 H         -42.557617     -114.770866      -34.727104
 H         -43.999146     -114.590935      -35.601112
 H         -42.583015     -111.176758      -33.368801
 H         -41.633842     -112.654556      -33.518002
 H         -43.885883     -113.511162      -33.342346
 H         -44.345837     -112.443298      -34.782661
