20
 generated by VMD
 C         -22.235559      -67.404671      -16.221790
 N         -21.117405      -67.095284      -16.156860
 H         -23.955906      -65.285286      -18.261713
 H         -23.282064      -67.715340      -16.323139
 C         -24.441729      -66.194580      -18.554783
 C         -23.911459      -66.601532      -19.979242
 C         -25.851580      -66.342819      -18.164692
 C         -24.298264      -68.012352      -20.267456
 C         -26.485205      -67.689331      -18.740641
 C         -25.936441      -68.002525      -20.131769
 H         -22.862011      -66.364494      -20.022259
 H         -24.573725      -65.965652      -20.561295
 H         -25.969601      -66.167313      -17.071377
 H         -26.463673      -65.584061      -18.555222
 H         -23.814192      -68.822571      -19.672161
 H         -24.046688      -68.154503      -21.295172
 H         -27.572697      -67.601791      -18.963129
 H         -26.389149      -68.517342      -18.096954
 H         -26.184135      -69.065765      -20.366020
 H         -26.458118      -67.461739      -20.928370
