20
 generated by VMD
 C         -78.681801     -208.565155      -76.959373
 N         -79.250099     -208.428513      -75.974174
 H         -78.871506     -209.336304      -73.364983
 H         -78.337502     -208.768219      -77.933426
 C         -78.469276     -209.893478      -72.535347
 C         -77.076973     -209.739624      -71.897934
 C         -79.216599     -211.053940      -72.093575
 C         -77.218262     -209.893463      -70.384911
 C         -79.061684     -211.425354      -70.590439
 C         -77.745644     -211.197052      -69.965187
 H         -76.747063     -208.723328      -72.166252
 H         -76.397911     -210.605301      -72.247536
 H         -80.273567     -211.009903      -72.547401
 H         -78.752312     -211.924652      -72.554832
 H         -77.790482     -209.053604      -70.009506
 H         -76.236778     -209.900421      -69.905190
 H         -79.280739     -212.565750      -70.333862
 H         -79.831017     -210.891251      -70.099754
 H         -77.697350     -211.050934      -68.867508
 H         -77.012077     -212.016754      -70.181122
