20
 generated by VMD
 C         -27.915958      -82.691330      -27.261597
 N         -27.187250      -83.390030      -26.671318
 H         -31.347420      -84.296669      -26.476971
 H         -28.580576      -82.041580      -27.687185
 C         -31.772291      -84.968651      -25.812149
 C         -31.425182      -84.893433      -24.290291
 C         -32.354675      -86.227257      -26.370115
 C         -32.462147      -85.564217      -23.478283
 C         -33.182835      -87.061424      -25.419573
 C         -32.706436      -86.975784      -23.889301
 H         -31.233351      -83.836838      -24.003384
 H         -30.498110      -85.487877      -24.215931
 H         -32.965813      -86.103821      -27.300447
 H         -31.489052      -86.760155      -26.719473
 H         -33.319359      -84.990494      -23.337618
 H         -32.094196      -85.543869      -22.403704
 H         -33.070625      -88.181488      -25.733009
 H         -34.268295      -86.858551      -25.366463
 H         -33.592278      -87.493584      -23.447353
 H         -31.857323      -87.650711      -23.762634
