20
 generated by VMD
 C         -41.472832     -102.572563      -35.847801
 N         -41.430508     -103.716522      -35.664017
 H         -39.059658     -104.665314      -33.883053
 H         -41.896183     -101.590683      -36.015190
 C         -38.532036     -105.268005      -33.095188
 C         -37.146671     -104.790375      -32.818489
 C         -39.108109     -106.346680      -32.376667
 C         -36.708927     -105.000565      -31.440241
 C         -38.313835     -106.715363      -30.994465
 C         -36.791451     -106.481171      -31.064554
 H         -37.241676     -103.688705      -33.027233
 H         -36.402233     -105.243813      -33.594391
 H         -40.141418     -106.259804      -32.195408
 H         -38.991962     -107.228256      -33.102673
 H         -37.093391     -104.251755      -30.669981
 H         -35.623089     -104.683006      -31.397009
 H         -38.707020     -107.666313      -30.726538
 H         -38.639423     -105.995850      -30.125477
 H         -36.229431     -106.774246      -30.147947
 H         -36.329685     -107.029022      -31.898441
