20
 generated by VMD
 C         -63.035355     -173.462631      -55.596230
 N         -63.314816     -174.139221      -54.733486
 H         -61.635002     -171.469650      -58.662415
 H         -62.761440     -172.922363      -56.492947
 C         -62.583401     -170.984665      -58.800449
 C         -62.720406     -169.879349      -57.753811
 C         -63.821938     -171.775894      -59.116817
 C         -63.653576     -168.876144      -58.355804
 C         -64.863243     -170.807693      -59.535812
 C         -64.942886     -169.582458      -58.684803
 H         -61.746704     -169.481049      -57.564919
 H         -63.092133     -170.424210      -56.814079
 H         -63.510033     -172.466537      -59.853542
 H         -64.078514     -172.176743      -58.150543
 H         -63.191803     -168.262039      -59.168869
 H         -63.979954     -168.173660      -57.509945
 H         -65.834785     -171.247086      -59.393173
 H         -64.728203     -170.588013      -60.534115
 H         -65.660202     -168.816696      -59.171036
 H         -65.485748     -169.929474      -57.787540
