20
 generated by VMD
 C         -29.821001      -89.646835      -25.550793
 N         -29.177761      -90.634239      -25.755432
 H         -32.183876      -91.718956      -27.470251
 H         -30.240215      -88.684494      -25.330748
 C         -32.950470      -90.939743      -27.493694
 C         -34.329132      -91.317108      -27.197626
 C         -32.641373      -89.583313      -28.177504
 C         -35.416019      -90.254982      -27.195124
 C         -33.730610      -88.527115      -27.900736
 C         -35.131180      -88.977921      -27.977846
 H         -34.464809      -91.802124      -26.186354
 H         -34.585999      -92.022820      -28.008812
 H         -31.599045      -89.376541      -27.977753
 H         -32.870419      -89.747925      -29.237219
 H         -35.712482      -89.910675      -26.207010
 H         -36.448849      -90.530510      -27.541723
 H         -33.556141      -87.604980      -28.502218
 H         -33.528496      -88.257225      -26.864767
 H         -35.748173      -88.223938      -27.454821
 H         -35.470074      -89.093536      -28.948225
