20
 generated by VMD
 C         -67.617371     -179.517334      -58.540787
 N         -68.450584     -180.229523      -58.205547
 H         -66.994728     -176.609390      -59.598930
 H         -66.798332     -178.916641      -58.813133
 C         -66.050499     -175.967651      -59.968739
 C         -65.969521     -175.076630      -61.185017
 C         -64.681847     -176.519577      -59.475368
 C         -65.013870     -173.954437      -60.873131
 C         -63.621490     -175.390884      -59.415012
 C         -63.640259     -174.512390      -60.616081
 H         -66.949371     -174.765762      -61.442719
 H         -65.582253     -175.664001      -62.080364
 H         -64.662354     -177.011078      -58.525536
 H         -64.225807     -177.266037      -60.175323
 H         -65.426315     -173.289627      -59.984631
 H         -64.958488     -173.326706      -61.820446
 H         -62.580063     -175.623993      -59.006920
 H         -64.041115     -174.761414      -58.614841
 H         -62.903786     -173.756241      -60.371014
 H         -63.443409     -175.210892      -61.485596
