20
 generated by VMD
 C         -23.399092      -53.317272      -14.078202
 N         -24.160236      -53.182888      -15.023049
 H         -20.355764      -55.201134      -15.350256
 H         -22.596395      -53.267269      -13.563503
 C         -19.549984      -55.421375      -14.544977
 C         -19.229717      -54.199104      -13.770643
 C         -18.521725      -56.447060      -14.821744
 C         -18.226881      -54.465332      -12.626786
 C         -17.675028      -56.742615      -13.571805
 C         -17.064587      -55.454937      -13.036286
 H         -20.106798      -53.692528      -13.445233
 H         -18.833029      -53.477329      -14.446898
 H         -19.050947      -57.370926      -15.167970
 H         -17.901785      -56.121040      -15.588684
 H         -18.623079      -54.913490      -11.688152
 H         -17.871355      -53.483025      -12.295318
 H         -16.834177      -57.441711      -13.864347
 H         -18.216923      -57.201889      -12.757096
 H         -16.494331      -55.746407      -12.121246
 H         -16.285040      -55.014240      -13.647222
