20
 generated by VMD
 C         -58.856335     -152.430542      -50.680908
 N         -59.817684     -153.000656      -50.232044
 H         -57.088772     -151.227783      -48.823784
 H         -57.908138     -151.906128      -51.041706
 C         -56.272839     -151.095657      -49.504066
 C         -55.425415     -152.218155      -49.962627
 C         -55.582241     -149.726089      -49.333282
 C         -54.547276     -151.738007      -51.187538
 C         -54.809151     -149.329590      -50.572910
 C         -53.773155     -150.436569      -50.925137
 H         -56.052719     -153.034409      -50.278450
 H         -54.818718     -152.567200      -49.120365
 H         -56.342834     -148.940445      -49.175713
 H         -54.918812     -149.669983      -48.514740
 H         -55.186985     -151.533279      -52.078308
 H         -53.804325     -152.529739      -51.366009
 H         -54.346256     -148.271591      -50.349648
 H         -55.222309     -149.026428      -51.487984
 H         -53.056473     -150.109177      -51.753777
 H         -53.210461     -150.618851      -49.993530
