20
 generated by VMD
 C         -21.376062      -65.409470      -17.147799
 N         -20.770737      -65.830215      -16.299904
 H         -24.564835      -63.642693      -18.070621
 H         -22.209936      -65.322685      -17.958487
 C         -24.573523      -64.673843      -18.289070
 C         -24.470924      -65.105507      -19.712645
 C         -25.130697      -65.490837      -17.098141
 C         -24.301693      -66.596848      -19.864758
 C         -24.919914      -67.063484      -17.408094
 C         -25.147173      -67.433151      -18.841000
 H         -23.624929      -64.405830      -20.155767
 H         -25.399046      -64.743195      -20.215576
 H         -24.688242      -65.182617      -16.163048
 H         -26.176619      -65.345619      -17.002504
 H         -23.240295      -66.804367      -19.738876
 H         -24.525890      -66.988998      -20.854517
 H         -25.517618      -67.610062      -16.684175
 H         -23.854120      -67.341019      -17.213982
 H         -25.019793      -68.507401      -19.091333
 H         -26.188856      -67.136162      -19.110952
