20
 generated by VMD
 C         -62.735233     -173.669556      -55.492825
 N         -63.540440     -174.169952      -54.869232
 H         -61.853840     -171.895721      -58.322685
 H         -62.066196     -173.191330      -56.177132
 C         -62.800629     -171.332657      -58.457424
 C         -62.812031     -170.000885      -57.780560
 C         -63.943920     -171.781174      -59.248104
 C         -63.700306     -169.007507      -58.287868
 C         -64.807091     -170.750809      -59.874222
 C         -64.988403     -169.631821      -58.785679
 H         -61.696205     -169.679306      -57.830128
 H         -62.963036     -170.209412      -56.816261
 H         -63.338989     -172.431290      -59.904736
 H         -64.537430     -172.439270      -58.514458
 H         -63.228523     -168.501236      -59.062840
 H         -63.915508     -168.243134      -57.615196
 H         -65.772087     -171.137131      -60.291325
 H         -64.206131     -170.365036      -60.763588
 H         -65.572510     -168.834534      -59.207329
 H         -65.611557     -170.062469      -57.899345
