20
 generated by VMD
 C         -79.473640     -206.520645      -73.453880
 N         -80.466637     -206.173416      -73.030365
 H         -78.001488     -204.999573      -70.570137
 H         -78.459442     -206.650162      -73.774132
 C         -76.963051     -205.299286      -70.597549
 C         -75.944710     -204.341248      -71.044235
 C         -76.659256     -206.637482      -70.072807
 C         -74.646698     -204.469589      -70.158051
 C         -75.505135     -206.467239      -69.083519
 C         -74.243690     -205.924133      -69.813210
 H         -76.238098     -203.283478      -71.007065
 H         -75.597084     -204.580215      -72.071541
 H         -77.629356     -206.828125      -69.648018
 H         -76.441956     -207.320251      -70.881935
 H         -74.686058     -204.036377      -69.147430
 H         -73.738441     -204.005966      -70.574738
 H         -75.344795     -207.515320      -68.595009
 H         -75.602966     -205.801010      -68.266350
 H         -73.401184     -205.980591      -69.063194
 H         -73.844315     -206.420197      -70.697227
