20
 generated by VMD
 C         -22.421488      -67.802345      -16.319561
 N         -21.359293      -67.748589      -15.819413
 H         -23.849318      -65.842957      -18.110741
 H         -23.401796      -67.932869      -16.479355
 C         -24.573435      -66.380348      -18.799484
 C         -24.003649      -66.946091      -20.002954
 C         -26.009413      -66.492409      -18.500406
 C         -24.451939      -68.338310      -20.297009
 C         -26.529627      -67.859016      -19.115206
 C         -25.985249      -68.299408      -20.428854
 H         -22.923315      -67.168549      -19.858805
 H         -24.236296      -66.320839      -20.884996
 H         -26.097589      -66.483223      -17.364960
 H         -26.561562      -65.655434      -18.871836
 H         -24.114717      -69.110802      -19.568554
 H         -24.060328      -68.699623      -21.189011
 H         -27.653721      -67.802200      -19.053753
 H         -26.358196      -68.572243      -18.338036
 H         -26.245745      -69.375000      -20.444111
 H         -26.392660      -67.802406      -21.301279
