20
 generated by VMD
 C          -3.470139      -17.369350        2.233943
 N          -3.203885      -18.423061        1.970065
 H          -5.535730      -20.311295        0.622471
 H          -5.928032      -20.790871       -1.047437
 C          -6.093906      -20.003593       -0.269602
 C          -5.412895      -18.781734       -0.879812
 C          -7.549234      -19.871717       -0.001862
 C          -6.190024      -18.210224       -1.964828
 C          -8.317753      -19.429665       -1.254568
 C          -7.676030      -18.098362       -1.738051
 H          -4.357402      -19.028610       -1.142123
 H          -5.331119      -18.100546       -0.081154
 H          -8.041507      -20.849703        0.421123
 H          -7.710254      -19.117176        0.832977
 H          -6.077384      -18.896749       -2.902634
 H          -5.778884      -17.261913       -2.326583
 H          -9.395720      -19.326902       -1.034778
 H          -8.231996      -20.203346       -2.034719
 H          -8.086905      -17.848143       -2.726553
 H          -7.839754      -17.253511       -1.050412
