20
 generated by VMD
 C         -50.827251     -129.693832      -46.030270
 N         -50.881763     -130.435928      -45.194889
 H         -48.108574     -131.575653      -44.317753
 H         -50.696259     -128.764755      -46.483818
 C         -47.987068     -131.412750      -43.189846
 C         -48.332409     -132.712494      -42.448124
 C         -47.977222     -130.163971      -42.441914
 C         -47.466957     -132.847977      -41.124210
 C         -47.118484     -130.213623      -41.166241
 C         -47.464203     -131.490814      -40.344666
 H         -48.302471     -133.446747      -43.186852
 H         -49.388340     -132.730896      -42.080521
 H         -47.545181     -129.430054      -43.117634
 H         -48.930412     -129.855164      -42.204235
 H         -46.452454     -133.197845      -41.446823
 H         -48.026951     -133.605347      -40.560326
 H         -47.425751     -129.447784      -40.526768
 H         -46.039490     -130.295288      -41.311214
 H         -46.840862     -131.575058      -39.361271
 H         -48.465862     -131.397415      -39.883434
