20
 generated by VMD
 C          -7.070631      -23.211992        2.763345
 N          -6.117170      -22.628838        2.689656
 H          -6.556399      -21.264509       -0.056548
 H          -8.136704      -21.699890       -0.953767
 C          -7.089933      -21.274225       -1.074158
 C          -6.383134      -22.163710       -2.139971
 C          -7.319323      -19.818600       -1.569137
 C          -7.088640      -22.167793       -3.469080
 C          -7.987383      -19.894281       -2.947080
 C          -7.245995      -20.726538       -3.961443
 H          -6.172580      -23.152422       -1.803279
 H          -5.326177      -21.799852       -2.229650
 H          -7.937650      -19.382006       -0.835122
 H          -6.336636      -19.329252       -1.710277
 H          -8.103667      -22.602451       -3.316736
 H          -6.558744      -22.723274       -4.260732
 H          -8.032314      -18.832466       -3.255837
 H          -8.992763      -20.384657       -2.907086
 H          -7.906966      -20.725666       -4.864050
 H          -6.226699      -20.389269       -4.317153
