20
 generated by VMD
 C         -11.479778      -27.126301       -1.134390
 N         -12.339212      -26.458361       -1.391683
 H         -10.450928      -26.239132       -3.910324
 H          -9.303327      -25.782482       -5.202301
 C          -9.408171      -26.094267       -4.183517
 C          -8.778345      -27.452404       -4.172118
 C          -8.684192      -25.045216       -3.309349
 C          -7.267754      -27.448830       -4.267735
 C          -7.136889      -25.165716       -3.245513
 C          -6.577425      -26.573977       -3.291200
 H          -9.211631      -28.089993       -4.955647
 H          -8.917885      -27.872105       -3.142490
 H          -9.012273      -24.071606       -3.630579
 H          -9.071589      -25.351274       -2.281616
 H          -7.045897      -27.096277       -5.222456
 H          -6.930216      -28.457800       -4.224320
 H          -6.678999      -24.611628       -2.429185
 H          -6.704075      -24.697945       -4.130741
 H          -5.486352      -26.559303       -3.401482
 H          -6.723982      -26.970694       -2.259567
