20
 generated by VMD
 C         -49.700420     -127.755066      -39.068630
 N         -49.671383     -126.686546      -38.626602
 H         -47.042160     -125.699661      -40.614273
 H         -50.036243     -128.759781      -39.364086
 C         -46.179371     -125.176262      -40.755981
 C         -44.846161     -125.791138      -40.426350
 C         -46.473843     -123.636162      -41.081367
 C         -43.713329     -124.850052      -40.887489
 C         -45.202232     -122.948219      -41.509338
 C         -43.935146     -123.371910      -40.748035
 H         -44.665417     -126.755791      -40.914471
 H         -44.794453     -125.959694      -39.231354
 H         -47.215515     -123.369911      -41.831810
 H         -46.942299     -123.306931      -40.139530
 H         -43.580196     -125.148193      -41.974739
 H         -42.735832     -125.179619      -40.437168
 H         -45.466286     -121.948479      -41.552116
 H         -45.040882     -123.214241      -42.545815
 H         -43.015202     -122.869949      -41.176388
 H         -43.885178     -123.144066      -39.724617
