20
 generated by VMD
 C         -41.579437     -102.427811      -35.844078
 N         -41.481194     -103.582184      -35.759232
 H         -39.271908     -104.737183      -33.558254
 H         -41.849545     -101.370186      -35.991177
 C         -38.543270     -105.178665      -32.979755
 C         -37.123131     -104.697075      -32.899075
 C         -39.037731     -106.406097      -32.257923
 C         -36.508652     -104.872971      -31.527786
 C         -38.265896     -106.799904      -30.925112
 C         -36.779610     -106.331177      -30.903683
 H         -37.036694     -103.614563      -32.999493
 H         -36.404213     -105.113739      -33.715446
 H         -40.108131     -106.362411      -32.093086
 H         -38.823418     -107.263214      -32.964935
 H         -36.934242     -104.122169      -30.778049
 H         -35.429951     -104.676735      -31.784712
 H         -38.346752     -107.851624      -30.694559
 H         -38.779137     -106.189896      -30.056726
 H         -36.358356     -106.390175      -29.898317
 H         -36.201263     -107.018738      -31.581934
