20
 generated by VMD
 C         -22.422977      -54.958340      -15.771331
 N         -23.483677      -55.312618      -16.148745
 H         -19.051476      -54.718636      -15.389428
 H         -21.439587      -54.330544      -15.411779
 C         -19.497131      -55.558529      -14.844826
 C         -19.282505      -55.371853      -13.274889
 C         -19.036263      -56.860985      -15.483021
 C         -19.688789      -56.642033      -12.531595
 C         -19.537672      -58.022030      -14.645860
 C         -19.085564      -57.897785      -13.174817
 H         -19.863661      -54.528931      -12.845567
 H         -18.231173      -55.109497      -13.152894
 H         -19.369583      -56.838947      -16.573975
 H         -18.010551      -56.991341      -15.339072
 H         -20.782858      -56.767815      -12.564591
 H         -19.303253      -56.551052      -11.504057
 H         -19.425259      -58.989658      -15.109482
 H         -20.646591      -57.993912      -14.605582
 H         -19.426308      -58.822395      -12.687374
 H         -18.012226      -57.875172      -13.208365
