20
 generated by VMD
 C         -79.564018     -206.803726      -74.326263
 N         -80.397446     -207.509232      -74.642509
 H         -76.639427     -207.368393      -73.291084
 H         -78.758270     -206.230759      -73.890625
 C         -76.601425     -207.847900      -72.235527
 C         -75.490166     -207.286728      -71.405373
 C         -77.737724     -208.601883      -71.588440
 C         -75.753464     -207.102280      -69.931412
 C         -77.869766     -208.476990      -69.961655
 C         -76.474106     -208.484543      -69.426216
 H         -75.078209     -206.332642      -71.709923
 H         -74.737122     -208.085556      -71.510101
 H         -78.680092     -208.190643      -72.025230
 H         -77.670158     -209.644424      -71.887367
 H         -76.308502     -206.246780      -69.482147
 H         -74.834290     -206.992111      -69.362000
 H         -78.580925     -209.243637      -69.751503
 H         -78.390396     -207.510681      -69.696228
 H         -76.425072     -208.444946      -68.355118
 H         -75.965477     -209.400894      -69.694817
