20
 generated by VMD
 C         -28.306725      -88.059204      -26.340816
 N         -28.360039      -86.904213      -26.093269
 H         -31.213583      -89.426598      -26.253260
 H         -28.152166      -89.167076      -26.683569
 C         -32.177258      -88.925201      -26.293779
 C         -33.110783      -88.835754      -25.126616
 C         -32.756340      -88.797699      -27.746086
 C         -34.297806      -87.812828      -25.393791
 C         -33.788910      -87.691040      -27.861238
 C         -34.819447      -87.913879      -26.807890
 H         -32.600014      -88.464554      -24.275633
 H         -33.507919      -89.706154      -24.802721
 H         -31.884045      -88.667145      -28.427732
 H         -33.297352      -89.701744      -28.161217
 H         -34.036167      -86.805122      -25.233833
 H         -35.113251      -88.047295      -24.769474
 H         -34.118134      -87.775833      -28.897642
 H         -33.347790      -86.685928      -27.743929
 H         -35.572895      -87.080109      -27.064541
 H         -35.333527      -88.918320      -27.025352
