20
 generated by VMD
 C         -14.255015      -45.479862       -5.938210
 N         -14.474549      -45.761524       -6.998771
 H         -15.328368      -44.179325       -9.060272
 H         -14.430795      -44.000282      -10.512679
 C         -15.451546      -44.277908      -10.151065
 C         -16.493013      -43.291573      -10.610134
 C         -15.816288      -45.704521      -10.498168
 C         -16.782375      -43.507961      -12.057509
 C         -16.263197      -46.027050      -11.902351
 C         -17.306696      -44.913425      -12.284226
 H         -16.217009      -42.267216      -10.454970
 H         -17.382450      -43.362366       -9.962774
 H         -15.024074      -46.425735      -10.287443
 H         -16.519949      -45.967678       -9.733794
 H         -15.892061      -43.286572      -12.656395
 H         -17.571478      -42.800667      -12.343166
 H         -16.663759      -46.986664      -12.017263
 H         -15.412148      -45.868313      -12.561608
 H         -17.536505      -44.941685      -13.348958
 H         -18.178715      -45.130215      -11.646267
