20
 generated by VMD
 C          -9.690061      -24.868343        0.589205
 N         -10.582785      -25.336044        0.125599
 H          -6.153917      -23.943901       -0.833399
 H          -7.848672      -23.587679       -1.095627
 C          -6.953637      -23.777521       -1.593603
 C          -7.247906      -25.033428       -2.483023
 C          -6.588171      -22.512281       -2.437917
 C          -8.152438      -24.766899       -3.710077
 C          -7.511793      -22.388096       -3.619541
 C          -7.595803      -23.612551       -4.518399
 H          -7.436652      -25.923750       -1.871003
 H          -6.342267      -25.351734       -2.967165
 H          -6.550152      -21.567572       -1.899808
 H          -5.510376      -22.639608       -2.777325
 H          -9.154417      -24.467823       -3.381032
 H          -8.389509      -25.695206       -4.304944
 H          -7.262408      -21.499361       -4.164778
 H          -8.486588      -22.208126       -3.170267
 H          -8.178973      -23.347261       -5.384748
 H          -6.574461      -23.937410       -4.890201
