20
 generated by VMD
 C         -43.223080     -121.142380      -35.549587
 N         -43.073826     -120.550621      -34.554291
 H         -44.540600     -121.955551      -39.228195
 H         -43.480019     -121.824982      -36.423473
 C         -44.465069     -120.852585      -39.174381
 C         -43.242538     -120.174492      -39.696369
 C         -45.497520     -119.953720      -38.397877
 C         -43.610996     -118.966873      -40.631836
 C         -45.894543     -118.878281      -39.409588
 C         -44.675934     -118.095901      -39.879086
 H         -42.544296     -120.839783      -40.062042
 H         -42.588470     -119.720825      -38.938122
 H         -46.390865     -120.501747      -38.146988
 H         -44.991177     -119.511940      -37.492210
 H         -44.064598     -119.342766      -41.626171
 H         -42.640285     -118.546104      -40.811413
 H         -46.452576     -118.251282      -38.715908
 H         -46.759117     -119.207512      -40.195465
 H         -44.886925     -117.220078      -40.534340
 H         -44.249718     -117.533234      -38.982414
