20
 generated by VMD
 C         -50.038803     -132.002899      -46.664623
 N         -49.990208     -132.524582      -47.737774
 H         -48.150818     -132.080795      -44.021336
 H         -50.150509     -131.226013      -45.951389
 C         -48.645729     -132.793030      -43.314117
 C         -49.544521     -133.843567      -43.780422
 C         -48.839546     -132.324005      -41.889175
 C         -49.443619     -135.098267      -42.913589
 C         -48.710938     -133.544693      -40.953514
 C         -49.512508     -134.807938      -41.454208
 H         -49.167538     -134.128128      -44.731594
 H         -50.628269     -133.520813      -43.926136
 H         -48.126221     -131.523376      -41.761311
 H         -49.956360     -131.978867      -41.709461
 H         -48.517220     -135.682434      -43.214451
 H         -50.248085     -135.778244      -43.298702
 H         -49.122730     -133.326538      -39.954918
 H         -47.709873     -133.671997      -40.917286
 H         -49.185703     -135.752563      -40.980465
 H         -50.609764     -134.616455      -41.327175
