20
 generated by VMD
 C         -31.037081      -74.837868      -22.346489
 N         -31.221432      -75.795677      -21.711967
 H         -28.710670      -77.178917      -21.074749
 H         -31.064613      -73.818825      -22.743355
 C         -27.744293      -76.686172      -21.325171
 C         -26.734684      -77.540314      -22.078712
 C         -27.204578      -75.402596      -20.660101
 C         -25.767895      -76.715958      -22.931391
 C         -26.274576      -74.639900      -21.499125
 C         -25.169300      -75.477623      -22.189898
 H         -27.210506      -78.316452      -22.586191
 H         -26.108953      -78.017662      -21.370327
 H         -28.034031      -74.840370      -20.305819
 H         -26.610281      -75.692833      -19.790358
 H         -26.404436      -76.341019      -23.717827
 H         -24.975111      -77.316772      -23.397785
 H         -25.904789      -73.735077      -20.993204
 H         -26.896343      -74.172447      -22.210716
 H         -24.683744      -74.734123      -22.785877
 H         -24.477072      -75.843910      -21.510035
