20
 generated by VMD
 C         -30.485184      -74.226631      -20.932795
 N         -30.310883      -75.281372      -20.452396
 H         -27.029694      -74.851677      -19.235552
 H         -30.585304      -73.142769      -21.126247
 C         -26.597790      -74.503777      -20.196821
 C         -26.197405      -75.689095      -21.095518
 C         -25.971127      -73.164055      -20.359583
 C         -26.039434      -75.249367      -22.475719
 C         -25.799784      -72.780106      -21.851866
 C         -25.089903      -73.971275      -22.655807
 H         -27.107462      -76.451408      -20.915232
 H         -25.370337      -76.240654      -20.653679
 H         -26.643778      -72.414665      -19.953518
 H         -24.919985      -72.879059      -19.896944
 H         -27.017094      -75.111008      -22.910965
 H         -25.558300      -76.029579      -23.019234
 H         -25.062746      -71.951813      -21.977749
 H         -26.755651      -72.695763      -22.433264
 H         -25.138315      -73.639633      -23.667734
 H         -24.079496      -74.248337      -22.346859
