20
 generated by VMD
 C         -38.790359     -111.481888      -36.468483
 N         -38.342274     -110.464890      -36.768566
 H         -40.514042     -114.578506      -34.747280
 H         -39.274837     -112.450493      -36.158089
 C         -41.339748     -114.049484      -35.163017
 C         -41.677761     -114.158653      -36.580196
 C         -41.994495     -112.981293      -34.263157
 C         -43.187103     -114.079193      -36.760532
 C         -43.478920     -113.073532      -34.571392
 C         -43.805195     -112.876923      -36.087414
 H         -41.193722     -115.093201      -36.925220
 H         -41.228268     -113.342117      -37.183773
 H         -41.636425     -113.217567      -33.278168
 H         -41.498646     -111.981049      -34.400478
 H         -43.748108     -114.876694      -36.419788
 H         -43.405514     -114.073235      -37.838501
 H         -44.128403     -112.472488      -33.882153
 H         -43.846138     -114.064552      -34.154873
 H         -44.974438     -112.991653      -36.289051
 H         -43.458591     -111.857849      -36.489342
