20
 generated by VMD
 C         -46.569286     -124.474800      -36.675606
 N         -46.988998     -125.133881      -35.801880
 H         -44.414356     -122.132629      -38.015503
 H         -46.272259     -124.079369      -37.616905
 C         -44.642490     -121.936714      -39.050926
 C         -43.338314     -121.808945      -39.704109
 C         -45.732212     -121.046684      -39.516964
 C         -43.504009     -122.003418      -41.186794
 C         -46.024273     -121.228806      -40.997639
 C         -44.718349     -121.244377      -41.881908
 H         -42.617569     -122.570641      -39.292755
 H         -43.012417     -120.820816      -39.473305
 H         -46.630836     -121.376068      -39.053139
 H         -45.614819     -119.977524      -39.253460
 H         -43.580620     -123.118759      -41.536736
 H         -42.441315     -121.794647      -41.672913
 H         -46.651188     -120.469566      -41.439453
 H         -46.516544     -122.266953      -41.143288
 H         -44.908543     -121.700401      -42.882473
 H         -44.391426     -120.242981      -42.141113
