20
 generated by VMD
 C         -38.464561     -108.904427      -36.673061
 N         -37.308422     -108.794693      -36.573486
 H         -41.454601     -109.757843      -36.100307
 H         -39.521595     -108.937309      -36.663692
 C         -41.919174     -110.542793      -35.604939
 C         -41.597218     -111.973671      -35.809673
 C         -42.763607     -110.192093      -34.337395
 C         -40.699787     -112.280464      -34.666252
 C         -41.945663     -110.762405      -33.247997
 C         -41.427696     -112.106918      -33.319820
 H         -41.074116     -112.256104      -36.744244
 H         -42.387890     -112.677856      -35.761673
 H         -42.933815     -109.143303      -34.047073
 H         -43.731987     -110.816429      -34.305885
 H         -39.649788     -111.756660      -34.618725
 H         -40.394722     -113.283600      -34.804882
 H         -42.510952     -110.712578      -32.309181
 H         -41.082733     -110.036308      -33.101151
 H         -40.695309     -112.329903      -32.523277
 H         -42.300533     -112.893921      -33.328125
