20
 generated by VMD
 C         -31.015667      -75.166069      -21.478867
 N         -31.997507      -75.800697      -21.732897
 H         -28.343094      -75.894249      -20.552151
 H         -30.250206      -74.681648      -20.889301
 C         -27.411953      -75.797554      -21.077269
 C         -26.700830      -76.897461      -21.836250
 C         -26.671547      -74.567268      -20.713882
 C         -25.734926      -76.348328      -22.818787
 C         -25.652035      -74.150459      -21.624374
 C         -24.852774      -75.236214      -22.296822
 H         -27.558910      -77.514015      -22.410275
 H         -26.026224      -77.441406      -21.177883
 H         -27.433235      -73.834305      -20.396790
 H         -26.111965      -74.837967      -19.711195
 H         -26.249439      -75.810066      -23.646572
 H         -25.096573      -77.149422      -23.291283
 H         -24.980881      -73.458374      -21.046911
 H         -26.280519      -73.609360      -22.405491
 H         -24.241261      -74.773087      -23.092545
 H         -24.166016      -75.697891      -21.594639
