20
 generated by VMD
 C         -13.852791      -28.184076       -3.448797
 N         -14.041013      -27.263519       -4.030748
 H         -10.246342      -28.830326       -2.643898
 H         -10.217567      -27.523588       -3.603342
 C          -9.531333      -28.309725       -3.287615
 C          -9.074122      -29.263659       -4.303652
 C          -8.438536      -27.629782       -2.450593
 C          -7.877634      -28.752531       -5.148304
 C          -7.331291      -27.046097       -3.337755
 C          -6.781975      -28.165567       -4.252848
 H          -9.885271      -29.358044       -5.076164
 H          -8.861959      -30.246473       -3.974837
 H          -8.824685      -26.838779       -1.821207
 H          -8.097192      -28.297653       -1.659712
 H          -8.341343      -28.082405       -5.923543
 H          -7.430178      -29.643906       -5.666728
 H          -6.494378      -26.698738       -2.684445
 H          -7.589691      -26.217541       -3.946277
 H          -6.083967      -27.631372       -4.874650
 H          -6.261662      -28.970707       -3.701399
