20
 generated by VMD
 C         -10.573359      -35.511192       -8.418860
 N         -10.337296      -36.578033       -8.551320
 H         -13.356576      -37.225239       -7.045812
 H         -14.544143      -37.968895       -5.943070
 C         -14.007046      -38.098812       -6.914433
 C         -13.120032      -39.326851       -6.981933
 C         -15.058224      -38.089516       -8.047676
 C         -13.905514      -40.588585       -7.022021
 C         -15.807782      -39.424168       -8.093203
 C         -14.863043      -40.636654       -8.137317
 H         -12.389004      -39.324963       -6.118677
 H         -12.505070      -39.346359       -7.924275
 H         -15.782505      -37.251793       -7.850006
 H         -14.602536      -37.874466       -8.995404
 H         -14.434827      -40.660225       -6.070249
 H         -13.247612      -41.405228       -7.140198
 H         -16.521860      -39.424114       -8.972806
 H         -16.428234      -39.461388       -7.249819
 H         -15.485372      -41.545269       -7.976285
 H         -14.363459      -40.714851       -9.084547
