20
 generated by VMD
 C         -22.396307      -67.657852      -16.204622
 N         -21.274790      -67.540581      -15.980658
 H         -24.271122      -65.424904      -18.313326
 H         -23.565399      -67.746902      -16.218452
 C         -24.437967      -66.465683      -18.650488
 C         -23.870317      -66.881149      -19.880426
 C         -25.953938      -66.510284      -18.583433
 C         -24.542688      -68.114655      -20.397379
 C         -26.512543      -67.858269      -18.883471
 C         -26.008249      -68.210999      -20.329416
 H         -22.813442      -67.048363      -19.766544
 H         -24.192554      -66.182068      -20.655416
 H         -26.341188      -65.991577      -17.635185
 H         -26.226742      -65.781830      -19.357143
 H         -24.014837      -68.915092      -19.872734
 H         -24.249386      -68.269814      -21.397135
 H         -27.610485      -68.011688      -18.888126
 H         -26.169666      -68.592171      -18.163162
 H         -26.448122      -69.209206      -20.522758
 H         -26.412643      -67.513603      -21.038067
