20
 generated by VMD
 C          -1.815366      -16.380501        2.237658
 N          -1.922703      -15.360549        2.680557
 H          -4.254984      -15.980193        0.152725
 H          -4.440379      -17.017328       -1.165143
 C          -5.008187      -16.628777       -0.316858
 C          -6.230736      -15.811175       -0.728186
 C          -5.311834      -17.756718        0.726603
 C          -7.423593      -16.672523       -1.073831
 C          -6.497657      -18.568245        0.278123
 C          -7.719607      -17.663345        0.030464
 H          -6.034311      -15.244335       -1.609402
 H          -6.447310      -15.069527        0.061336
 H          -4.480372      -18.377058        0.776675
 H          -5.335030      -17.372911        1.703463
 H          -7.155509      -17.155649       -2.059934
 H          -8.309339      -15.970429       -1.218808
 H          -6.799850      -19.332438        1.029078
 H          -6.329442      -19.077122       -0.691154
 H          -8.586188      -18.282261       -0.202470
 H          -7.891978      -17.160624        0.980493
