20
 generated by VMD
 C         -50.645947     -130.907379      -46.389374
 N         -50.253201     -131.032104      -47.519478
 H         -48.330719     -131.904526      -44.314018
 H         -50.898357     -130.715302      -45.311050
 C         -48.551712     -132.298538      -43.344051
 C         -49.189358     -133.703583      -43.078735
 C         -48.446728     -131.399139      -42.106976
 C         -48.544243     -134.347092      -41.938652
 C         -47.909660     -132.167816      -40.902897
 C         -48.488041     -133.567032      -40.689754
 H         -49.062256     -134.309402      -44.004128
 H         -50.289623     -133.678360      -42.923233
 H         -47.833408     -130.478485      -42.497772
 H         -49.464306     -131.075058      -41.938770
 H         -47.499931     -134.583893      -42.335133
 H         -48.983154     -135.358887      -41.717522
 H         -48.061001     -131.587631      -40.010365
 H         -46.726105     -132.300079      -41.069130
 H         -47.921028     -134.083496      -39.869549
 H         -49.428337     -133.379852      -40.199356
