20
 generated by VMD
 C         -40.772137     -102.316193      -35.081814
 N         -41.593895     -102.184448      -35.875843
 H         -39.852207     -104.605186      -32.129482
 H         -40.198044     -102.450821      -34.140202
 C         -38.861492     -104.750771      -31.943983
 C         -37.868206     -104.095886      -32.772202
 C         -38.376141     -105.993057      -31.168642
 C         -36.491070     -103.812210      -32.074760
 C         -37.029640     -105.646820      -30.383446
 C         -35.931007     -105.029915      -31.324493
 H         -38.330856     -103.231934      -33.152264
 H         -37.797630     -104.722321      -33.677853
 H         -39.101768     -106.285690      -30.464682
 H         -38.147987     -106.949020      -31.861517
 H         -36.528065     -102.860847      -31.497715
 H         -35.768513     -103.564056      -32.882008
 H         -36.859718     -106.573235      -29.824406
 H         -37.302418     -104.824471      -29.584490
 H         -35.041409     -104.789696      -30.751131
 H         -35.674973     -105.694633      -32.140266
