20
 generated by VMD
 C         -25.413504      -71.170013      -17.062387
 N         -25.351793      -71.076111      -15.922533
 H         -24.096338      -68.515663      -18.548542
 H         -25.543079      -71.259422      -18.185081
 C         -24.533558      -68.992691      -19.410242
 C         -23.854832      -69.820595      -20.521442
 C         -25.778803      -68.425980      -19.888334
 C         -24.864918      -70.662727      -21.338596
 C         -26.804796      -69.228020      -20.588224
 C         -26.205975      -69.997223      -21.694628
 H         -23.044403      -70.268547      -20.050772
 H         -23.278620      -69.134003      -21.152803
 H         -26.406763      -68.097847      -19.073763
 H         -25.428265      -67.632538      -20.652046
 H         -25.159046      -71.566528      -20.682913
 H         -24.381071      -71.175758      -22.150063
 H         -27.585890      -68.525940      -21.017767
 H         -27.304451      -69.982758      -19.893181
 H         -26.871618      -70.785515      -22.144321
 H         -25.809029      -69.266891      -22.478003
