20
 generated by VMD
 C         -60.049244     -152.717957      -51.033699
 N         -60.883263     -152.611313      -51.761082
 H         -56.863453     -152.961075      -49.030621
 H         -59.159107     -152.865173      -50.450958
 C         -56.036007     -152.450256      -49.529469
 C         -54.644302     -152.934982      -49.436569
 C         -56.349098     -151.100601      -49.996807
 C         -53.805408     -152.435822      -50.690727
 C         -55.511623     -150.523331      -51.164371
 C         -53.984943     -150.909317      -50.990322
 H         -54.647724     -154.047455      -49.623989
 H         -54.161583     -152.723953      -48.438148
 H         -57.420242     -151.035568      -50.192768
 H         -56.293827     -150.545166      -49.050571
 H         -54.213840     -153.039383      -51.502274
 H         -52.725769     -152.641937      -50.551403
 H         -55.508854     -149.376007      -51.385239
 H         -55.817726     -150.848801      -52.096416
 H         -53.469852     -150.805756      -52.023300
 H         -53.498260     -150.410751      -50.222378
