20
 generated by VMD
 C          -5.937477      -20.982792        1.975154
 N          -6.056352      -22.071203        1.810330
 H          -5.118719      -18.726339       -0.876109
 H          -5.936392      -20.062588       -0.190097
 C          -5.798407      -19.488802       -1.142360
 C          -5.474511      -20.474831       -2.225427
 C          -7.131679      -18.776714       -1.413980
 C          -6.599430      -21.506084       -2.314924
 C          -8.285094      -19.801664       -1.412886
 C          -8.004498      -20.951736       -2.288725
 H          -4.453968      -20.959661       -1.959660
 H          -5.286629      -20.044544       -3.192732
 H          -7.383106      -18.115858       -0.620673
 H          -7.086299      -18.184982       -2.232337
 H          -6.493216      -22.229683       -1.458068
 H          -6.479833      -22.089579       -3.256320
 H          -9.199786      -19.316988       -1.751105
 H          -8.406303      -20.132545       -0.366376
 H          -8.777949      -21.720190       -2.187289
 H          -8.197924      -20.614681       -3.316540
