20
 generated by VMD
 C         -57.958569     -161.922195      -56.243916
 N         -57.160774     -162.050522      -57.020950
 H         -59.582642     -164.261139      -55.457207
 H         -58.647602     -161.795395      -55.459866
 C         -60.404331     -164.460541      -54.876591
 C         -60.445911     -164.095673      -53.454803
 C         -61.755936     -164.580200      -55.569359
 C         -61.674816     -163.122452      -53.045429
 C         -62.790585     -163.374969      -55.347027
 C         -63.031719     -163.448257      -53.772278
 H         -59.537556     -163.553528      -53.121124
 H         -60.612392     -165.015274      -52.750622
 H         -61.711418     -164.763245      -56.678024
 H         -62.119987     -165.430130      -55.072216
 H         -61.340618     -162.089035      -53.357052
 H         -61.812267     -163.001999      -51.881603
 H         -63.735889     -163.666397      -55.918308
 H         -62.291702     -162.405869      -55.534073
 H         -63.880356     -162.737289      -53.511909
 H         -63.498199     -164.416946      -53.447815
