20
 generated by VMD
 C         -31.395267      -78.473450      -26.326279
 N         -31.401802      -77.920181      -27.336473
 H         -29.576323      -79.568802      -24.302313
 H         -31.566410      -78.824623      -25.387939
 C         -29.141750      -80.326180      -23.530018
 C         -27.581877      -80.508224      -23.291317
 C         -30.052336      -81.564873      -23.357565
 C         -27.454197      -81.039795      -21.779650
 C         -29.782957      -82.080940      -21.943991
 C         -28.282804      -82.220703      -21.534622
 H         -27.166359      -79.557533      -23.446810
 H         -27.164196      -81.303970      -23.930634
 H         -30.998266      -81.208084      -23.587692
 H         -29.847891      -82.415489      -24.126589
 H         -27.827715      -80.263268      -21.156475
 H         -26.425064      -81.164261      -21.427219
 H         -30.469240      -82.962547      -21.805698
 H         -30.064022      -81.298065      -21.172636
 H         -28.276011      -82.330284      -20.412977
 H         -27.879511      -83.140114      -21.976927
