20
 generated by VMD
 C         -31.238852      -75.695602      -21.488617
 N         -32.325527      -75.332390      -21.441566
 H         -27.777149      -75.612885      -20.031208
 H         -30.277708      -75.964867      -21.854462
 C         -26.996708      -75.326523      -20.722155
 C         -26.483465      -76.455490      -21.477798
 C         -26.011915      -74.172935      -20.432064
 C         -25.921747      -76.001060      -22.818251
 C         -25.401939      -73.719902      -21.776672
 C         -24.817005      -74.929161      -22.467073
 H         -27.272581      -77.067108      -21.710712
 H         -25.798820      -76.909035      -20.729601
 H         -26.649380      -73.374100      -19.960209
 H         -25.305426      -74.623528      -19.796867
 H         -26.593674      -75.561127      -23.565130
 H         -25.436069      -76.872742      -23.238029
 H         -24.616341      -72.932243      -21.622936
 H         -26.188988      -73.168556      -22.334341
 H         -24.394550      -74.627541      -23.457417
 H         -23.862282      -75.142647      -21.954651
