20
 generated by VMD
 C         -49.318230     -126.934303      -40.024742
 N         -49.940971     -127.136742      -39.063194
 H         -46.711678     -126.965240      -42.490852
 H         -48.556988     -126.776978      -40.771282
 C         -46.185371     -126.384727      -41.807358
 C         -45.250458     -126.814575      -40.755203
 C         -46.718651     -124.925270      -41.750317
 C         -44.219543     -125.785378      -40.412090
 C         -45.631039     -123.927292      -41.390278
 C         -44.737679     -124.375900      -40.262535
 H         -44.679028     -127.751701      -41.095348
 H         -45.809628     -127.170135      -39.849567
 H         -47.316608     -124.667694      -42.669933
 H         -47.537228     -124.979385      -40.975548
 H         -43.458977     -125.765549      -41.242367
 H         -43.661819     -125.991913      -39.490921
 H         -46.058956     -122.914719      -41.160706
 H         -45.129074     -123.652550      -42.284004
 H         -43.800247     -123.748940      -40.328999
 H         -45.163799     -124.210976      -39.277046
