20
 generated by VMD
 C         -31.009493      -78.352844      -26.179756
 N         -31.653048      -77.557198      -25.644703
 H         -29.249969      -77.577438      -22.927153
 H         -30.546867      -78.892883      -26.918720
 C         -28.807005      -78.540108      -22.770187
 C         -27.308733      -78.633705      -23.041487
 C         -29.661297      -79.610359      -22.061327
 C         -26.636692      -79.695656      -22.185581
 C         -28.842503      -80.708450      -21.338894
 C         -27.419062      -80.923866      -21.893431
 H         -26.734140      -77.690956      -22.928967
 H         -27.243191      -78.759453      -24.182119
 H         -30.370974      -79.173126      -21.388197
 H         -30.238091      -79.988449      -22.957729
 H         -26.273804      -79.244614      -21.235620
 H         -25.760742      -80.084534      -22.768269
 H         -29.410692      -81.651352      -21.350363
 H         -28.845779      -80.339096      -20.381126
 H         -26.824562      -81.582443      -21.254412
 H         -27.506287      -81.376328      -22.813227
