20
 generated by VMD
 C         -60.910812     -154.830460      -51.387524
 N         -60.909210     -154.052811      -52.264786
 H         -57.484707     -153.954865      -53.038986
 H         -60.911518     -155.490631      -50.558388
 C         -56.756432     -153.708145      -52.257240
 C         -57.191776     -153.941635      -50.796055
 C         -55.511448     -152.918274      -52.473972
 C         -56.165775     -154.371811      -49.809074
 C         -54.447273     -153.421814      -51.423790
 C         -54.980217     -153.374603      -50.009945
 H         -57.822876     -154.849518      -50.863338
 H         -57.825294     -153.060760      -50.575775
 H         -55.077171     -152.928009      -53.469830
 H         -55.707272     -151.824600      -52.249382
 H         -55.790203     -155.411072      -50.041416
 H         -56.570324     -154.381699      -48.698486
 H         -53.572914     -152.842331      -51.534481
 H         -54.150036     -154.520859      -51.471519
 H         -54.074020     -153.507584      -49.300125
 H         -55.291996     -152.410217      -49.743050
