20
 generated by VMD
 C         -53.327930     -147.537354      -45.541355
 N         -54.424168     -147.608475      -45.100349
 H         -54.368179     -147.666382      -48.232128
 H         -52.367218     -147.625732      -46.108315
 C         -54.403667     -146.724304      -48.723118
 C         -53.212460     -146.568390      -49.640297
 C         -55.081425     -145.541000      -48.080692
 C         -53.484558     -145.340515      -50.477959
 C         -55.073490     -144.388733      -49.011715
 C         -53.883232     -144.104721      -49.723415
 H         -53.132980     -147.433151      -50.204243
 H         -52.340221     -146.475052      -48.960434
 H         -56.086140     -145.899689      -47.840176
 H         -54.595558     -145.188644      -47.070908
 H         -54.205441     -145.565964      -51.347336
 H         -52.466785     -145.151306      -50.872940
 H         -55.479023     -143.464615      -48.603130
 H         -55.834236     -144.693466      -49.723251
 H         -53.884842     -143.327362      -50.477531
 H         -53.093086     -144.030167      -49.003212
