20
 generated by VMD
 C         -70.594261     -196.812531      -66.315071
 N         -69.739662     -196.164780      -65.822609
 H         -73.101227     -194.982788      -64.497902
 H         -71.516037     -197.289062      -66.765503
 C         -73.369667     -194.599030      -65.464684
 C         -72.389915     -193.530289      -65.994087
 C         -74.147697     -195.300415      -66.553345
 C         -73.024208     -192.766815      -67.293198
 C         -73.552231     -195.206528      -67.899513
 C         -73.422394     -193.742844      -68.418510
 H         -71.480972     -194.117996      -66.485008
 H         -72.257317     -192.832336      -65.220444
 H         -74.219971     -196.309708      -66.206322
 H         -75.179710     -194.948120      -66.522865
 H         -72.288872     -192.077972      -67.701698
 H         -73.916328     -192.268219      -66.910637
 H         -74.201019     -195.658936      -68.601494
 H         -72.563972     -195.731689      -67.870445
 H         -72.769844     -193.656311      -69.222466
 H         -74.519180     -193.301010      -68.732933
