20
 generated by VMD
 C         -57.542828     -165.829971      -56.591194
 N         -57.955326     -166.783569      -56.064358
 H         -60.685867     -164.962769      -54.396873
 H         -57.068790     -165.059006      -57.132290
 C         -61.626945     -165.301514      -54.811256
 C         -61.859577     -166.681351      -55.385441
 C         -62.404930     -164.171417      -55.440746
 C         -63.250092     -166.986877      -55.772781
 C         -63.840588     -164.506088      -55.743431
 C         -63.981449     -165.818130      -56.453648
 H         -61.579704     -167.277130      -54.586201
 H         -61.114460     -166.759628      -56.153515
 H         -62.458023     -163.272186      -54.696537
 H         -61.776016     -163.911926      -56.296692
 H         -63.854675     -167.270035      -54.837090
 H         -63.256641     -167.890137      -56.403374
 H         -64.332108     -163.807602      -56.213535
 H         -64.462410     -164.472672      -54.865139
 H         -64.978104     -166.150894      -56.521397
 H         -63.466373     -165.735504      -57.382225
