20
 generated by VMD
 C         -30.766539      -92.861526      -26.050774
 N         -30.147436      -92.543846      -25.095961
 H         -32.935047      -89.612854      -26.264456
 H         -31.221159      -93.198936      -26.910559
 C         -33.353230      -90.017342      -27.183268
 C         -33.887451      -91.364647      -27.075453
 C         -33.400349      -89.406395      -28.517866
 C         -35.258728      -91.613838      -27.874968
 C         -34.677471      -89.605293      -29.274904
 C         -35.095631      -91.135651      -29.366329
 H         -34.022655      -91.656906      -25.969110
 H         -33.271431      -92.274269      -27.459099
 H         -33.251476      -88.341812      -28.282768
 H         -32.458126      -89.685074      -29.116428
 H         -36.162342      -91.140144      -27.394804
 H         -35.498940      -92.683334      -27.841253
 H         -34.501328      -89.293213      -30.351042
 H         -35.526390      -88.949783      -28.963741
 H         -36.117451      -91.206009      -29.805088
 H         -34.505478      -91.888748      -29.985453
