20
 generated by VMD
 C         -68.503990     -189.316788      -67.231010
 N         -67.365738     -189.235214      -66.993774
 H         -68.623093     -188.221741      -63.754028
 H         -69.474861     -189.486969      -67.589119
 C         -69.612328     -188.410004      -63.384148
 C         -70.171196     -189.703796      -63.438644
 C         -70.469368     -187.311768      -62.921627
 C         -71.413300     -189.691299      -64.379982
 C         -71.796585     -187.348877      -63.622959
 C         -72.536644     -188.683640      -63.802933
 H         -70.479820     -190.087402      -62.444324
 H         -69.326118     -190.302856      -63.903790
 H         -70.517197     -187.239365      -61.828197
 H         -69.887695     -186.288437      -63.063152
 H         -71.865883     -190.735825      -64.384041
 H         -71.161530     -189.349854      -65.355957
 H         -71.932251     -186.779236      -64.539764
 H         -72.313599     -186.671021      -62.851257
 H         -72.797684     -189.049530      -62.805908
 H         -73.376587     -188.705460      -64.578667
