20
 generated by VMD
 C         -57.712559     -168.114700      -55.152466
 N         -56.603840     -168.463715      -54.877003
 H         -61.294685     -166.862091      -55.558083
 H         -58.701172     -167.857391      -55.597237
 C         -62.320415     -166.776550      -55.874313
 C         -62.590683     -167.331436      -57.234871
 C         -63.090271     -165.496414      -55.554272
 C         -64.096870     -167.383057      -57.511257
 C         -64.549332     -165.505234      -56.015968
 C         -64.779106     -166.059891      -57.356037
 H         -62.238625     -168.474380      -57.191788
 H         -61.970222     -166.950562      -58.082436
 H         -63.039173     -165.468323      -54.393360
 H         -62.580555     -164.629150      -56.014797
 H         -64.689369     -168.099426      -56.851341
 H         -64.291191     -167.762451      -58.554638
 H         -65.106628     -164.697983      -55.832958
 H         -65.024109     -166.113190      -55.263500
 H         -65.770569     -166.431091      -57.441704
 H         -64.557091     -165.448334      -58.185093
