20
 generated by VMD
 C         -60.436295     -169.642136      -55.187965
 N         -59.377739     -169.203644      -55.321789
 H         -63.753811     -170.682007      -56.858021
 H         -61.436424     -170.069611      -55.251652
 C         -63.384373     -169.615753      -56.990494
 C         -62.608196     -169.090988      -58.200382
 C         -63.824192     -168.662689      -55.956100
 C         -63.230675     -167.741074      -58.674267
 C         -64.378494     -167.339310      -56.519096
 C         -63.555229     -166.771561      -57.611012
 H         -62.510418     -169.820831      -58.918182
 H         -61.513691     -168.716446      -58.016048
 H         -64.553322     -169.044754      -55.341576
 H         -63.037624     -168.309570      -55.327885
 H         -64.146713     -167.922577      -59.316402
 H         -62.480087     -167.473816      -59.408115
 H         -64.400780     -166.661392      -55.652687
 H         -65.347351     -167.525986      -56.739738
 H         -64.046913     -165.927826      -58.074890
 H         -62.640301     -166.404282      -57.210140
