20
 generated by VMD
 C         -40.373856     -118.141144      -34.783855
 N         -39.421673     -117.526741      -35.047775
 H         -42.426876     -116.348938      -36.503441
 H         -40.978756     -118.954826      -34.473091
 C         -43.166924     -116.609215      -37.229553
 C         -42.830086     -116.969856      -38.714645
 C         -44.594280     -116.298164      -36.921028
 C         -44.042637     -117.716743      -39.399960
 C         -45.703419     -116.987885      -37.839577
 C         -45.335739     -116.961380      -39.366062
 H         -41.930962     -117.620613      -38.699059
 H         -42.522686     -116.032539      -39.240566
 H         -44.745106     -116.642166      -35.924099
 H         -44.939594     -115.273438      -36.806229
 H         -44.173676     -118.655632      -38.888805
 H         -43.701019     -117.923546      -40.371227
 H         -46.654743     -116.417480      -37.641621
 H         -45.851875     -118.090019      -37.725567
 H         -46.088112     -117.543152      -39.898079
 H         -45.086563     -116.038872      -39.713173
