20
 generated by VMD
 C         -21.832733      -52.326622      -11.443896
 N         -21.724436      -52.857430      -10.430215
 H         -20.074062      -51.742596      -13.930390
 H         -21.650967      -51.635300      -12.485728
 C         -18.929964      -51.749916      -13.732941
 C         -17.968443      -51.766705      -14.871016
 C         -18.530073      -51.622864      -12.276051
 C         -16.526178      -51.988411      -14.447265
 C         -17.064816      -51.237431      -12.157859
 C         -16.253769      -52.171112      -12.999039
 H         -18.030848      -50.832294      -15.445899
 H         -18.205858      -52.589546      -15.525722
 H         -19.159906      -50.876152      -11.809024
 H         -18.636274      -52.604416      -11.729474
 H         -15.863367      -51.141273      -14.761308
 H         -16.205242      -52.832321      -15.077508
 H         -16.692795      -51.222420      -11.079497
 H         -16.999277      -50.245308      -12.528186
 H         -15.179815      -52.183365      -12.708238
 H         -16.547070      -53.212193      -12.722074
