20
 generated by VMD
 C         -62.683891     -174.513718      -54.767868
 N         -63.387371     -174.116241      -55.578480
 H         -63.450588     -172.993790      -57.810188
 H         -61.979645     -174.804230      -54.010147
 C         -63.478222     -172.032883      -58.328663
 C         -63.595089     -170.772263      -57.509979
 C         -64.181732     -172.037598      -59.658199
 C         -63.758480     -169.493622      -58.348324
 C         -64.442390     -170.704788      -60.257896
 C         -64.795319     -169.528305      -59.453476
 H         -62.736126     -170.701782      -56.957264
 H         -64.531532     -170.949188      -56.778179
 H         -63.746769     -172.813553      -60.376656
 H         -65.089989     -172.576447      -59.399086
 H         -62.826118     -169.276367      -58.788486
 H         -64.080872     -168.816879      -57.655857
 H         -65.380669     -170.845932      -60.864120
 H         -63.655045     -170.317795      -60.927658
 H         -64.857857     -168.609940      -60.078632
 H         -65.731537     -169.655609      -59.001751
