20
 generated by VMD
 C         -51.540627     -129.791779      -45.220131
 N         -51.710430     -129.934769      -46.366291
 H         -48.277306     -130.231232      -43.670593
 H         -51.844917     -129.753342      -44.210686
 C         -47.996422     -130.352005      -42.546341
 C         -48.008713     -131.695908      -41.883942
 C         -47.494213     -129.140274      -41.654934
 C         -46.730358     -132.023468      -41.059875
 C         -46.171989     -129.540329      -40.933132
 C         -46.387260     -130.831345      -40.157173
 H         -48.172287     -132.413620      -42.777401
 H         -48.876793     -131.756577      -41.327038
 H         -47.305904     -128.287476      -42.291801
 H         -48.294113     -128.929001      -40.812683
 H         -45.816936     -132.269180      -41.660320
 H         -46.678986     -132.836502      -40.357880
 H         -46.019531     -128.678818      -40.260517
 H         -45.402843     -129.530884      -41.603909
 H         -45.378979     -130.924744      -39.702328
 H         -47.235462     -130.677719      -39.461983
