20
 generated by VMD
 C         -70.105141     -182.877365      -65.949646
 N         -71.127831     -183.354141      -65.643295
 H         -67.666306     -182.720901      -63.133858
 H         -69.154213     -182.474106      -66.269760
 C         -67.543983     -182.400055      -62.094986
 C         -67.680344     -183.401031      -61.010246
 C         -66.956352     -180.993912      -61.853352
 C         -66.637939     -183.035873      -59.891098
 C         -66.196541     -180.740891      -60.599251
 C         -66.678947     -181.648270      -59.536461
 H         -67.423050     -184.337936      -61.437943
 H         -68.641953     -183.292801      -60.431313
 H         -66.438515     -180.668076      -62.759514
 H         -67.954269     -180.359314      -61.844971
 H         -65.629410     -183.248306      -60.208477
 H         -67.029877     -183.812607      -59.144348
 H         -66.352516     -179.678589      -60.308533
 H         -65.127281     -180.898026      -60.554142
 H         -66.005081     -181.617981      -58.645611
 H         -67.680450     -181.357391      -59.102222
