20
 generated by VMD
 C         -21.625074      -66.475121      -16.695509
 N         -20.882566      -66.905220      -15.926426
 H         -24.085438      -64.472458      -18.080923
 H         -22.060638      -66.284935      -17.578938
 C         -24.541714      -65.370903      -18.590509
 C         -24.221296      -65.830643      -19.920303
 C         -25.875036      -65.935654      -18.029814
 C         -24.340794      -67.343803      -20.102787
 C         -25.722221      -67.506989      -18.031841
 C         -25.625336      -67.937119      -19.455694
 H         -23.188972      -65.528587      -20.181210
 H         -24.880514      -65.226257      -20.575352
 H         -25.949078      -65.667847      -16.920643
 H         -26.788019      -65.599800      -18.603888
 H         -23.469357      -67.836746      -19.726437
 H         -24.374138      -67.635979      -21.107731
 H         -26.628447      -67.823074      -17.507530
 H         -24.823486      -67.825165      -17.523260
 H         -25.811863      -69.061028      -19.599594
 H         -26.473230      -67.459839      -19.929695
