20
 generated by VMD
 C         -48.158478     -140.353409      -45.715771
 N         -46.993839     -140.029205      -45.608543
 H         -51.125172     -138.621902      -45.636993
 H         -49.207256     -140.579651      -45.886227
 C         -51.940590     -139.336014      -45.759647
 C         -52.270004     -139.406754      -47.181107
 C         -53.147858     -139.293503      -44.849907
 C         -53.254375     -140.485535      -47.534554
 C         -54.144341     -140.471039      -45.127094
 C         -54.479950     -140.551575      -46.580669
 H         -51.328171     -139.402313      -47.706867
 H         -52.670429     -138.432846      -47.536644
 H         -52.778484     -139.221848      -43.795181
 H         -53.846176     -138.424667      -44.853607
 H         -52.723942     -141.472412      -47.631565
 H         -53.578865     -140.197922      -48.587814
 H         -55.064312     -140.248383      -44.632126
 H         -53.706287     -141.491257      -44.844646
 H         -55.156376     -141.379715      -46.699032
 H         -54.983170     -139.647125      -46.779644
