20
 generated by VMD
 C         -10.515000      -39.977329       -6.904989
 N         -11.343784      -40.203495       -6.163428
 H         -13.686968      -40.721096       -8.809486
 H         -15.043054      -39.852322       -9.599836
 C         -14.685859      -40.893955       -9.303242
 C         -15.407331      -41.536507       -8.151288
 C         -14.661834      -41.741848      -10.563879
 C         -16.744997      -42.141953       -8.522071
 C         -16.078697      -42.095203      -10.969188
 C         -16.786646      -42.869091       -9.908189
 H         -15.550963      -40.859337       -7.347352
 H         -14.809581      -42.350212       -7.751308
 H         -14.165199      -41.165714      -11.299798
 H         -14.196014      -42.715107      -10.358142
 H         -17.489761      -41.319016       -8.516877
 H         -16.930941      -42.879185       -7.766958
 H         -15.918056      -42.740879      -11.887140
 H         -16.566063      -41.219250      -11.325353
 H         -17.837366      -42.999569      -10.182521
 H         -16.347841      -43.887424       -9.789735
