20
 generated by VMD
 C         -30.740639      -78.411354      -25.267418
 N         -31.278297      -77.382759      -25.009363
 H         -29.163790      -76.992981      -22.533186
 H         -30.163546      -79.312820      -25.550529
 C         -28.669634      -78.009155      -22.519436
 C         -27.499769      -78.273911      -23.331202
 C         -29.486252      -79.206810      -22.055368
 C         -26.628901      -79.078499      -22.442745
 C         -28.635328      -80.214111      -21.364082
 C         -27.217890      -80.344482      -21.926519
 H         -26.924149      -77.264297      -23.548496
 H         -27.751017      -78.911552      -24.267239
 H         -30.256258      -78.753090      -21.423891
 H         -29.926453      -79.569748      -22.999081
 H         -26.147207      -78.586960      -21.597124
 H         -25.740730      -79.319496      -23.119408
 H         -29.240120      -81.137238      -21.320934
 H         -28.674494      -79.882385      -20.229654
 H         -26.545404      -80.922928      -21.370604
 H         -27.399025      -80.973579      -22.818972
