20
 generated by VMD
 C         -78.738388     -208.252609      -76.825249
 N         -78.958939     -208.291321      -75.689133
 H         -78.938156     -209.741180      -73.493195
 H         -78.469780     -208.245132      -77.923157
 C         -78.593109     -210.043884      -72.519302
 C         -77.328049     -209.481186      -72.132668
 C         -79.075211     -211.328354      -71.919411
 C         -77.076439     -209.610428      -70.594238
 C         -78.977333     -211.103027      -70.360573
 C         -77.554222     -210.955124      -69.873055
 H         -77.316132     -208.406082      -72.391785
 H         -76.559669     -210.081833      -72.682785
 H         -80.096336     -211.549179      -72.120605
 H         -78.457253     -212.187332      -72.282784
 H         -77.517151     -208.737091      -70.083504
 H         -75.989372     -209.663223      -70.585243
 H         -79.535522     -212.069626      -70.008110
 H         -79.624672     -210.302505      -69.938042
 H         -77.447708     -210.937729      -68.785225
 H         -76.773911     -211.618774      -70.225899
