20
 generated by VMD
 C         -41.584023     -119.641899      -34.318356
 N         -41.519241     -120.322823      -35.221424
 H         -43.408253     -118.405785      -36.829899
 H         -41.388660     -118.924652      -33.504490
 C         -43.876957     -118.402779      -37.759182
 C         -42.952824     -118.338142      -39.029350
 C         -45.189201     -117.710793      -37.784241
 C         -43.796959     -118.597351      -40.216885
 C         -45.929802     -118.102676      -38.984520
 C         -45.148335     -117.919334      -40.276707
 H         -42.160076     -119.089638      -39.018700
 H         -42.552452     -117.437782      -39.206905
 H         -45.650806     -117.901573      -36.780128
 H         -45.100285     -116.554863      -37.851803
 H         -44.071369     -119.659668      -40.284710
 H         -43.279583     -118.466141      -41.137180
 H         -46.993015     -117.647530      -39.081020
 H         -46.131432     -119.255341      -39.096085
 H         -45.591164     -118.246239      -41.237801
 H         -44.897663     -116.872414      -40.602390
