20
 generated by VMD
 C         -10.690404      -25.658226       -0.838504
 N         -11.129049      -24.668299       -0.570506
 H          -6.825393      -25.709597       -0.985516
 H          -8.462688      -25.377436       -1.471658
 C          -7.365720      -25.233204       -1.756843
 C          -7.222108      -26.118498       -2.995581
 C          -7.125646      -23.739180       -1.989935
 C          -7.867320      -25.552893       -4.230230
 C          -7.789314      -23.275974       -3.213912
 C          -7.456084      -24.042473       -4.477328
 H          -7.633070      -27.128571       -2.751859
 H          -6.085837      -26.068167       -3.246649
 H          -7.490211      -23.130592       -1.123834
 H          -6.101325      -23.555691       -2.201612
 H          -8.970229      -25.566469       -3.981192
 H          -7.600374      -26.165094       -5.127458
 H          -7.575555      -22.223438       -3.285266
 H          -8.872366      -23.298328       -3.115705
 H          -7.989261      -23.591696       -5.324049
 H          -6.447772      -24.073114       -4.750785
