20
 generated by VMD
 C         -79.452293     -206.063171      -73.181892
 N         -80.432671     -206.397491      -72.702248
 H         -77.814400     -204.737839      -71.049820
 H         -78.497337     -205.809799      -73.496742
 C         -76.855934     -205.120087      -70.685165
 C         -75.674286     -204.436905      -71.286644
 C         -76.604187     -206.585800      -70.196465
 C         -74.744225     -204.237717      -70.136063
 C         -75.451401     -206.570587      -69.247398
 C         -74.356430     -205.599213      -69.471794
 H         -75.911194     -203.359009      -71.495331
 H         -75.197090     -204.881332      -72.143616
 H         -77.531570     -206.836212      -69.610107
 H         -76.583725     -207.207886      -71.103249
 H         -75.162315     -203.723969      -69.322296
 H         -73.855515     -203.821472      -70.471687
 H         -75.158890     -207.585892      -69.054901
 H         -75.707298     -206.206100      -68.154396
 H         -73.591415     -205.416809      -68.707054
 H         -73.805977     -206.117172      -70.278664
