20
 generated by VMD
 C         -48.431911     -135.632477      -46.284336
 N         -47.277576     -135.446213      -46.202724
 H         -51.682079     -134.814499      -45.785000
 H         -49.506287     -135.817688      -46.311466
 C         -51.764923     -135.658020      -45.055283
 C         -52.265820     -136.973114      -45.515697
 C         -51.235336     -135.502258      -43.632847
 C         -51.488384     -138.161392      -44.955872
 C         -50.540611     -136.740128      -43.069279
 C         -51.203529     -138.101837      -43.438530
 H         -52.215942     -136.919632      -46.619930
 H         -53.335735     -137.021378      -45.302078
 H         -50.678448     -134.564407      -43.609081
 H         -52.138981     -135.304825      -42.915932
 H         -50.487522     -138.160721      -45.501083
 H         -51.978733     -139.086121      -45.206123
 H         -50.375301     -136.653809      -41.978542
 H         -49.591877     -136.811752      -43.649639
 H         -50.514484     -138.879791      -43.055920
 H         -52.185707     -138.112015      -42.946133
