20
 generated by VMD
 C         -31.091528      -74.806534      -21.865221
 N         -31.427500      -75.951805      -21.772858
 H         -28.555386      -76.649734      -20.769089
 H         -30.673464      -74.027107      -22.424896
 C         -27.652365      -76.262253      -21.258104
 C         -26.758923      -77.311043      -21.962606
 C         -27.016146      -75.097519      -20.640577
 C         -25.744509      -76.570656      -22.952049
 C         -26.047518      -74.353203      -21.625128
 C         -25.021498      -75.443962      -22.147785
 H         -27.322058      -78.207870      -22.589144
 H         -26.031317      -77.748787      -21.259254
 H         -27.759031      -74.423126      -20.289524
 H         -26.460295      -75.430679      -19.726982
 H         -26.395391      -76.209000      -23.788685
 H         -24.917946      -77.183060      -23.401936
 H         -25.421532      -73.641167      -20.995710
 H         -26.521074      -73.819115      -22.567556
 H         -24.470961      -74.815712      -22.879971
 H         -24.350954      -75.866447      -21.371235
