20
 generated by VMD
 C         -12.331723      -27.089699       -2.686235
 N         -13.071997      -27.729126       -2.131565
 H         -10.563511      -26.792740       -4.282679
 H          -9.148385      -26.380072       -5.312527
 C          -9.478592      -26.826727       -4.325649
 C          -8.992703      -28.250208       -4.410638
 C          -8.900072      -26.152214       -3.121789
 C          -7.494986      -28.287601       -4.577181
 C          -7.310178      -26.235806       -3.163619
 C          -6.801049      -27.668205       -3.387586
 H          -9.438875      -28.828163       -5.272626
 H          -9.195579      -28.710365       -3.416654
 H          -9.269172      -25.105793       -3.000216
 H          -9.171736      -26.746340       -2.231201
 H          -7.260379      -27.699564       -5.411369
 H          -7.222702      -29.330524       -4.676923
 H          -6.870123      -25.793564       -2.294436
 H          -7.091239      -25.603592       -4.052950
 H          -5.701244      -27.803766       -3.535441
 H          -7.047002      -28.281586       -2.517492
