20
 generated by VMD
 C         -38.041302     -109.859215      -36.268864
 N         -37.439724     -108.903397      -36.042023
 H         -40.693233     -112.556450      -37.051651
 H         -38.432926     -110.781738      -36.720367
 C         -41.257561     -112.895203      -36.170444
 C         -42.395306     -113.787361      -36.511135
 C         -41.532406     -111.754448      -35.208225
 C         -43.242622     -114.117050      -35.318958
 C         -42.420269     -112.214897      -34.045437
 C         -43.692696     -112.856033      -34.550793
 H         -42.072823     -114.616348      -37.118073
 H         -43.034851     -113.276268      -37.297028
 H         -40.539654     -111.307793      -34.736263
 H         -42.000549     -110.920151      -35.773411
 H         -42.553467     -114.663490      -34.603035
 H         -44.094826     -114.596909      -35.688511
 H         -42.661198     -111.325027      -33.476303
 H         -41.955566     -112.986557      -33.382030
 H         -44.275845     -113.208580      -33.660088
 H         -44.368065     -112.244705      -35.157589
