20
 generated by VMD
 C         -65.367874     -177.382629      -56.399578
 N         -66.044945     -177.049438      -55.525002
 H         -64.592514     -175.189850      -59.401997
 H         -64.669373     -177.806625      -57.142620
 C         -64.309120     -174.096848      -59.408546
 C         -65.288170     -173.049408      -58.742908
 C         -63.680454     -173.552063      -60.666695
 C         -64.811462     -171.636536      -58.794888
 C         -63.075333     -172.099274      -60.496609
 C         -64.266312     -171.180939      -60.153503
 H         -65.502518     -173.389694      -57.673759
 H         -66.101341     -173.219788      -59.356930
 H         -62.919033     -174.143448      -61.044106
 H         -64.281525     -173.666321      -61.510235
 H         -64.155495     -171.532486      -57.895821
 H         -65.689827     -170.989487      -58.604179
 H         -62.510155     -171.784073      -61.396633
 H         -62.426056     -172.158310      -59.558895
 H         -63.941975     -170.174835      -60.044922
 H         -65.073189     -171.260956      -60.920246
