20
 generated by VMD
 C         -19.565977      -57.907284      -17.066904
 N         -19.246792      -58.460663      -18.038359
 H         -22.790873      -59.586735      -16.675947
 H         -19.779623      -57.336258      -16.264517
 C         -22.751299      -60.724350      -16.405333
 C         -23.934275      -61.517857      -16.664717
 C         -21.973845      -60.920155      -15.119217
 C         -23.593622      -62.943043      -16.658875
 C         -21.817057      -62.417625      -14.806263
 C         -23.001698      -63.302658      -15.310946
 H         -24.383224      -61.187214      -17.572996
 H         -24.671768      -61.342442      -15.984269
 H         -21.024214      -60.537586      -15.425385
 H         -22.348177      -60.323536      -14.275662
 H         -22.863272      -63.111103      -17.451954
 H         -24.359764      -63.621502      -16.995342
 H         -21.727983      -62.669998      -13.737135
 H         -20.999023      -62.746925      -15.469505
 H         -22.633978      -64.371254      -15.381473
 H         -23.832081      -63.281193      -14.586258
