20
 generated by VMD
 C          -4.812036      -21.051285        2.005795
 N          -5.242449      -20.255320        2.664812
 H          -5.089859      -18.675592       -0.679824
 H          -5.617683      -20.288687       -0.132766
 C          -5.834089      -19.456736       -0.828108
 C          -5.575202      -19.974182       -2.255192
 C          -7.261044      -18.954250       -0.556909
 C          -6.731263      -20.867941       -2.782073
 C          -8.284737      -19.767694       -1.198921
 C          -8.041683      -20.086082       -2.663080
 H          -4.635378      -20.523201       -2.323969
 H          -5.513169      -19.159920       -2.916137
 H          -7.307481      -18.878757        0.597630
 H          -7.228183      -17.970783       -1.047799
 H          -6.721300      -21.777660       -2.187170
 H          -6.562990      -21.220308       -3.832090
 H          -9.273782      -19.287033       -1.116364
 H          -8.329080      -20.714912       -0.704953
 H          -8.845963      -20.691246       -2.998482
 H          -8.032210      -19.173332       -3.239175
