20
 generated by VMD
 C         -50.888905     -129.441620      -45.250374
 N         -50.940212     -129.931793      -44.159935
 H         -48.989616     -128.613510      -42.013035
 H         -50.794281     -128.848328      -46.131390
 C         -48.103271     -128.875565      -41.390350
 C         -47.926556     -130.277588      -40.998909
 C         -47.222069     -127.755226      -40.939945
 C         -46.493683     -130.684662      -41.428020
 C         -45.773087     -128.129608      -41.297306
 C         -45.448818     -129.593674      -40.931820
 H         -48.631374     -131.059433      -41.485107
 H         -48.048805     -130.421387      -39.888165
 H         -47.649357     -126.887749      -41.426720
 H         -47.338577     -127.619469      -39.855892
 H         -46.325298     -130.828430      -42.496181
 H         -46.384121     -131.661957      -41.020523
 H         -45.117065     -127.287537      -40.881882
 H         -45.641838     -128.032562      -42.353745
 H         -44.364922     -129.770462      -41.192448
 H         -45.433258     -129.580185      -39.856194
