20
 generated by VMD
 C         -74.603676     -201.391998      -66.038795
 N         -73.527191     -200.931229      -66.084160
 H         -76.255676     -198.883530      -68.483688
 H         -75.587608     -201.684830      -65.800781
 C         -75.396904     -198.288147      -68.884850
 C         -74.989288     -197.137863      -68.088020
 C         -74.548164     -199.028946      -69.908752
 C         -73.514389     -196.742035      -68.018417
 C         -73.240112     -198.353790      -70.007912
 C         -72.602440     -197.813370      -68.718132
 H         -75.405174     -197.322861      -67.037575
 H         -75.477615     -196.161484      -68.456367
 H         -74.369812     -200.019226      -69.475868
 H         -75.034431     -199.093445      -70.874252
 H         -73.164619     -196.707565      -67.000130
 H         -73.273697     -195.785797      -68.581818
 H         -73.185493     -197.582901      -70.779213
 H         -72.562325     -199.148209      -70.494873
 H         -72.364037     -198.650635      -68.146133
 H         -71.509727     -197.333313      -68.930855
