20
 generated by VMD
 C         -29.893372      -79.302597      -26.094467
 N         -30.825333      -78.657921      -25.955294
 H         -29.071779      -82.625175      -25.706875
 H         -28.980043      -79.950119      -25.879974
 C         -29.084623      -82.923637      -24.712645
 C         -28.340918      -82.011429      -23.730433
 C         -29.803080      -84.068474      -24.044598
 C         -29.397867      -81.419487      -22.814600
 C         -30.969070      -83.375008      -23.271595
 C         -30.452744      -82.368332      -22.172573
 H         -27.800690      -81.261780      -24.244543
 H         -27.565823      -82.574303      -23.135277
 H         -30.214134      -84.791176      -24.733471
 H         -29.062698      -84.570976      -23.419802
 H         -29.996281      -80.607132      -23.396818
 H         -28.721464      -80.936493      -22.184856
 H         -31.545086      -84.156700      -22.824663
 H         -31.621420      -82.769943      -23.954006
 H         -31.294458      -81.803032      -21.748034
 H         -30.002689      -83.039963      -21.402916
