20
 generated by VMD
 C         -73.457092     -200.141846      -65.743904
 N         -73.692238     -200.924088      -64.900101
 H         -71.512733     -196.949936      -67.065559
 H         -73.189781     -199.374756      -66.399651
 C         -72.422768     -196.702957      -67.573921
 C         -73.410530     -195.638977      -67.190018
 C         -72.460297     -197.037903      -69.035164
 C         -74.174934     -195.094742      -68.360275
 C         -73.869156     -197.426895      -69.380898
 C         -74.737236     -196.103043      -69.393280
 H         -72.902153     -194.808228      -66.805550
 H         -73.963333     -196.083252      -66.357910
 H         -72.056839     -196.163239      -69.611267
 H         -71.734138     -197.922821      -69.061714
 H         -73.499771     -194.354111      -68.875648
 H         -74.929092     -194.422607      -67.962601
 H         -74.262024     -198.187668      -68.714890
 H         -73.868195     -197.977051      -70.385361
 H         -74.914955     -195.675690      -70.458893
 H         -75.656227     -196.439041      -69.067833
