20
 generated by VMD
 C         -73.844894     -201.569839      -65.326157
 N         -72.856514     -201.080124      -65.664154
 H         -74.792702     -198.004776      -66.857552
 H         -74.693748     -202.108963      -65.005234
 C         -74.727936     -197.555420      -67.818665
 C         -74.767410     -196.062714      -67.905983
 C         -74.172691     -198.484543      -68.894623
 C         -73.506538     -195.442932      -68.436676
 C         -73.590195     -197.645462      -69.986389
 C         -72.793533     -196.432877      -69.556213
 H         -74.886627     -195.685501      -66.899467
 H         -75.706436     -195.673859      -68.510353
 H         -73.345932     -199.001556      -68.460045
 H         -74.966782     -199.112122      -69.200272
 H         -72.792206     -195.194107      -67.654663
 H         -73.875198     -194.542145      -69.004181
 H         -74.389824     -197.149643      -70.617607
 H         -73.047554     -198.219574      -70.748344
 H         -71.924820     -196.827316      -68.883690
 H         -72.441872     -195.880768      -70.395882
