20
 generated by VMD
 C         -61.012024     -156.033905      -54.505116
 N         -60.692257     -156.133118      -55.591175
 H         -59.414619     -155.995117      -51.039917
 H         -61.416683     -156.046585      -53.527828
 C         -58.394245     -155.811325      -51.305355
 C         -57.602039     -154.741913      -50.706577
 C         -57.697285     -156.776001      -52.262165
 C         -56.321587     -155.360184      -50.039692
 C         -56.406860     -157.345352      -51.704979
 C         -55.495239     -156.246857      -51.060810
 H         -58.162170     -154.163986      -49.985638
 H         -57.329086     -154.017563      -51.560234
 H         -58.387753     -157.492966      -52.632595
 H         -57.471119     -156.197784      -53.111477
 H         -56.555496     -155.881226      -49.173065
 H         -55.630478     -154.576920      -49.757618
 H         -55.742546     -157.794418      -52.401028
 H         -56.625046     -158.087906      -50.902458
 H         -54.707184     -156.768051      -50.634071
 H         -55.091843     -155.598373      -51.917370
