20
 generated by VMD
 C         -69.300804     -180.315247      -60.380306
 N         -69.247261     -181.475540      -60.406132
 H         -67.348663     -177.244095      -59.497162
 H         -69.397255     -179.225647      -60.224407
 C         -66.341972     -177.281097      -59.881969
 C         -66.007874     -177.210876      -61.363331
 C         -65.260437     -177.113358      -58.786186
 C         -64.835815     -176.280045      -61.615517
 C         -64.298592     -175.987274      -59.237225
 C         -63.695816     -176.073227      -60.638962
 H         -66.867020     -176.898026      -61.961502
 H         -65.807579     -178.159470      -61.838402
 H         -65.795525     -176.890869      -57.854973
 H         -64.815987     -178.130051      -58.702911
 H         -65.382538     -175.312225      -61.590630
 H         -64.544807     -176.364990      -62.765415
 H         -63.428749     -176.174713      -58.585007
 H         -64.827011     -175.041855      -59.033405
 H         -63.054050     -175.235474      -60.948879
 H         -63.108440     -176.965637      -60.865150
