20
 generated by VMD
 C          -9.974795      -36.340752       -7.143311
 N         -10.135110      -36.735355       -8.169048
 H         -13.350336      -38.135406       -7.961092
 H         -14.590154      -38.546314       -6.819114
 C         -14.157110      -38.843334       -7.739299
 C         -13.527004      -40.236935       -7.586139
 C         -15.292859      -38.810257       -8.795576
 C         -14.513874      -41.432037       -7.473293
 C         -16.344076      -39.926598       -8.514389
 C         -15.663894      -41.325893       -8.552488
 H         -12.805345      -40.273739       -6.771487
 H         -12.798889      -40.348148       -8.397182
 H         -15.767803      -37.817226       -8.851873
 H         -14.890109      -38.919590       -9.830441
 H         -15.016795      -41.522552       -6.459161
 H         -13.947349      -42.377724       -7.525082
 H         -17.167507      -39.940834       -9.260557
 H         -16.810663      -39.809875       -7.521853
 H         -16.391155      -42.101177       -8.432215
 H         -15.274778      -41.386288       -9.567244
