20
 generated by VMD
 C          -2.254571      -16.892101        2.834785
 N          -2.405818      -16.303772        1.902047
 H          -4.430106      -15.828084        0.224653
 H          -4.428060      -17.027189       -1.023064
 C          -5.066427      -16.619843       -0.268873
 C          -6.287508      -16.030655       -0.957440
 C          -5.379601      -17.579634        0.811719
 C          -7.357426      -17.025024       -1.361409
 C          -6.386493      -18.664665        0.285098
 C          -7.646120      -17.932419       -0.155822
 H          -5.986537      -15.574868       -1.874728
 H          -6.676057      -15.232115       -0.266750
 H          -4.532554      -18.226305        1.188710
 H          -5.915553      -17.122553        1.695733
 H          -6.992376      -17.638565       -2.140655
 H          -8.286346      -16.519043       -1.639772
 H          -6.591159      -19.358349        1.106610
 H          -5.872323      -19.221313       -0.524728
 H          -8.433863      -18.654802       -0.474614
 H          -8.052835      -17.289770        0.638317
