20
 generated by VMD
 C         -18.241526      -48.669163       -7.225269
 N         -18.949015      -49.491566       -6.921499
 H         -16.215885      -47.709465      -10.112277
 H         -16.412788      -48.984131      -11.375773
 C         -16.365349      -47.937756      -11.156528
 C         -15.156248      -47.428425      -11.990247
 C         -17.633474      -47.310074      -11.666342
 C         -15.369977      -47.346695      -13.474162
 C         -17.796757      -47.714920      -13.104617
 C         -16.763046      -46.864628      -13.884091
 H         -14.314533      -48.114422      -11.762458
 H         -14.731636      -46.505913      -11.600308
 H         -18.522451      -47.704708      -11.105766
 H         -17.703634      -46.195850      -11.496652
 H         -15.233069      -48.370792      -13.844997
 H         -14.601061      -46.810726      -14.045771
 H         -18.836775      -47.481007      -13.370164
 H         -17.548527      -48.842514      -13.298031
 H         -16.910915      -47.007324      -14.932150
 H         -16.853237      -45.849205      -13.637297
