20
 generated by VMD
 C         -72.701683     -199.232712      -65.477776
 N         -71.934608     -199.708847      -64.729248
 H         -71.188469     -196.110062      -67.226021
 H         -73.296959     -198.803436      -66.253433
 C         -72.116867     -195.714081      -67.644569
 C         -72.801254     -194.462601      -67.160210
 C         -72.617462     -196.407318      -68.937988
 C         -74.146385     -194.273834      -67.906830
 C         -74.127068     -196.607956      -68.924004
 C         -74.960823     -195.553345      -68.123886
 H         -72.215607     -193.539291      -67.436569
 H         -72.954918     -194.427322      -66.120995
 H         -72.328140     -195.734940      -69.838615
 H         -72.193779     -197.484253      -69.064148
 H         -73.986755     -193.673477      -68.806351
 H         -74.662712     -193.461227      -67.318443
 H         -74.400032     -197.635300      -68.541389
 H         -74.448761     -196.649796      -69.945992
 H         -76.007835     -195.251053      -68.680214
 H         -75.275375     -195.920654      -67.167282
