20
 generated by VMD
 C          -1.395523      -10.480598        1.283337
 N          -0.852513      -11.477489        1.427680
 H          -3.856467      -13.145518        0.005006
 H          -5.161169      -12.707991        0.961675
 C          -4.523275      -13.575778        0.801194
 C          -3.828977      -13.841485        2.085728
 C          -5.379405      -14.761792        0.249207
 C          -4.755035      -14.485533        3.093210
 C          -6.343517      -15.291204        1.367628
 C          -5.537152      -15.732777        2.587038
 H          -3.505200      -12.850123        2.404108
 H          -2.928041      -14.447525        1.786141
 H          -5.978676      -14.498404       -0.593442
 H          -4.816621      -15.541327       -0.155867
 H          -5.475591      -13.726689        3.561622
 H          -4.075098      -14.785154        3.920938
 H          -7.039633      -16.068033        1.004177
 H          -7.042635      -14.450194        1.687454
 H          -6.195079      -16.035883        3.380873
 H          -4.893155      -16.554966        2.400162
