20
 generated by VMD
 C          -2.821488       -9.511406        0.091736
 N          -1.819225       -8.990424        0.208519
 H          -2.055425      -11.548253        3.020169
 H          -2.831990      -12.259701        4.284171
 C          -2.853791      -12.276242        3.164257
 C          -2.563314      -13.690561        2.574046
 C          -4.217939      -11.716891        2.677154
 C          -3.708378      -14.640112        2.916229
 C          -5.323577      -12.701728        3.056001
 C          -5.083668      -14.139111        2.497534
 H          -1.531748      -14.021068        2.900396
 H          -2.471501      -13.545059        1.490474
 H          -4.401703      -10.715657        3.188336
 H          -4.176002      -11.479502        1.604563
 H          -3.627485      -14.945669        3.962618
 H          -3.485527      -15.575590        2.322587
 H          -6.294609      -12.368302        2.638867
 H          -5.482248      -12.744539        4.129382
 H          -5.832925      -14.861691        2.752686
 H          -5.069937      -14.086219        1.427117
