20
 generated by VMD
 C         -60.010456     -153.242050      -51.598099
 N         -60.291767     -152.173477      -51.459530
 H         -57.327988     -153.580139      -49.676613
 H         -59.745121     -154.265015      -51.620853
 C         -56.425953     -153.111389      -50.034302
 C         -55.035019     -153.190704      -49.351398
 C         -56.818130     -151.788040      -50.695190
 C         -53.896004     -152.765854      -50.418308
 C         -55.614223     -151.076614      -51.384747
 C         -54.204422     -151.331070      -50.793270
 H         -54.838448     -154.214188      -49.199379
 H         -55.087322     -152.607605      -48.427547
 H         -57.607738     -151.995255      -51.430340
 H         -57.267780     -151.074036      -50.001614
 H         -53.906040     -153.478210      -51.245476
 H         -52.921219     -152.596115      -49.849834
 H         -55.929802     -149.938141      -51.570927
 H         -55.593037     -151.404343      -52.408031
 H         -53.498131     -150.934753      -51.620243
 H         -54.204559     -150.788712      -49.888142
