20
 generated by VMD
 C         -29.827538      -79.316307      -26.156813
 N         -30.761225      -78.675148      -25.929125
 H         -28.650833      -82.961952      -25.803549
 H         -29.073969      -79.884468      -26.718733
 C         -29.005289      -83.054695      -24.724598
 C         -28.394417      -82.051445      -23.691416
 C         -29.918858      -84.066078      -24.119162
 C         -29.596674      -81.436089      -22.818243
 C         -30.967978      -83.497711      -23.228258
 C         -30.459053      -82.479088      -22.289049
 H         -27.739986      -81.200623      -24.180845
 H         -27.659147      -82.563919      -23.005388
 H         -30.433037      -84.748024      -24.783550
 H         -29.216724      -84.703987      -23.575157
 H         -30.141281      -80.701836      -23.337549
 H         -28.896330      -80.933189      -22.046629
 H         -31.459690      -84.254044      -22.591879
 H         -31.720484      -82.987823      -23.774433
 H         -31.289896      -81.926918      -21.816694
 H         -30.069153      -82.915955      -21.436123
