20
 generated by VMD
 C         -49.949165     -143.217712      -44.656170
 N         -49.163685     -143.417130      -45.478489
 H         -52.052898     -140.603790      -45.563030
 H         -50.792393     -143.170990      -44.027065
 C         -52.642921     -141.186050      -46.315094
 C         -52.056057     -141.455688      -47.728844
 C         -54.211044     -140.968216      -46.046455
 C         -53.052956     -142.187225      -48.628944
 C         -54.988708     -141.877319      -47.050236
 C         -54.477482     -141.668747      -48.456249
 H         -51.146683     -141.995956      -47.605602
 H         -51.868103     -140.407349      -48.043201
 H         -54.437191     -141.289444      -45.045609
 H         -54.529243     -139.982544      -46.228256
 H         -53.026031     -143.327087      -48.192638
 H         -52.943676     -142.249878      -49.742580
 H         -55.993362     -141.481979      -46.844887
 H         -55.041698     -143.000229      -46.763618
 H         -55.127827     -142.211823      -49.211468
 H         -54.442596     -140.573151      -48.815033
