20
 generated by VMD
 C         -68.010857     -185.832260      -67.494705
 N         -68.669090     -186.809875      -67.613998
 H         -68.569489     -187.493057      -64.805183
 H         -67.438751     -184.971054      -67.269379
 C         -69.232735     -187.558960      -63.911976
 C         -68.729958     -187.126938      -62.522129
 C         -70.735413     -187.880020      -64.144447
 C         -69.719231     -187.272415      -61.378204
 C         -71.402496     -188.368439      -62.850964
 C         -71.175209     -187.463516      -61.738960
 H         -68.321632     -186.098801      -62.584824
 H         -67.835999     -187.830658      -62.440807
 H         -71.280434     -186.983215      -64.432419
 H         -70.933578     -188.534729      -64.918694
 H         -69.784004     -186.443298      -60.697659
 H         -69.389610     -188.114456      -60.783756
 H         -71.123100     -189.493896      -62.785484
 H         -72.530228     -188.420609      -63.042217
 H         -71.613800     -186.483688      -61.903961
 H         -71.772530     -187.654129      -60.788433
