20
 generated by VMD
 C         -36.714161      -98.315987      -25.959044
 N         -37.278065      -98.375397      -26.986158
 H         -36.357716      -96.224403      -28.736034
 H         -36.323631      -98.326431      -24.952326
 C         -35.530506      -95.902779      -29.430359
 C         -35.630699      -96.742607      -30.711313
 C         -34.464821      -95.028091      -29.095108
 C         -35.098099      -95.920845      -31.854469
 C         -33.965900      -94.276192      -30.346975
 C         -33.789890      -95.154228      -31.560801
 H         -36.757629      -96.850952      -30.834164
 H         -35.317299      -97.774399      -30.672094
 H         -34.771858      -94.309708      -28.352312
 H         -33.666653      -95.652328      -28.719038
 H         -35.824013      -95.179474      -32.256241
 H         -34.912655      -96.662086      -32.588066
 H         -33.056908      -93.711197      -30.201748
 H         -34.703148      -93.468376      -30.660183
 H         -33.502552      -94.567581      -32.428955
 H         -32.918564      -96.039780      -31.304249
