20
 generated by VMD
 C         -38.986832     -115.977669      -35.314590
 N         -39.428299     -115.389618      -34.412994
 H         -41.332085     -115.780792      -37.153408
 H         -38.844856     -116.614891      -36.153027
 C         -42.460579     -115.750763      -37.419746
 C         -43.030048     -115.541374      -38.803677
 C         -43.335644     -115.734375      -36.227280
 C         -44.258656     -116.335762      -39.004860
 C         -44.767044     -116.165634      -36.405209
 C         -45.224613     -116.024048      -37.871689
 H         -42.279758     -115.859116      -39.478069
 H         -43.305832     -114.533295      -38.969448
 H         -42.938873     -116.477867      -35.492622
 H         -43.500782     -114.713470      -35.865795
 H         -44.248196     -117.438622      -39.003620
 H         -44.658844     -116.045502      -39.938877
 H         -45.433136     -115.503967      -35.860298
 H         -44.841835     -117.152863      -36.089909
 H         -46.287884     -116.690750      -37.932632
 H         -45.675194     -115.058876      -37.909809
