20
 generated by VMD
 C         -32.378132      -95.410347      -25.568016
 N         -33.285629      -95.271652      -24.811558
 H         -34.109642      -94.706665      -27.987949
 H         -31.543375      -95.473038      -26.161577
 C         -34.295635      -93.742157      -28.571848
 C         -35.769440      -93.588211      -28.824471
 C         -33.313465      -93.483910      -29.692410
 C         -36.090416      -92.247124      -29.317240
 C         -33.706387      -92.109383      -30.236889
 C         -35.151680      -91.925842      -30.542847
 H         -36.353436      -93.782623      -27.923223
 H         -36.228104      -94.263672      -29.606537
 H         -32.297962      -93.493927      -29.307974
 H         -33.337990      -94.301407      -30.460669
 H         -35.693451      -91.436295      -28.621849
 H         -37.102962      -92.059532      -29.550276
 H         -33.143108      -91.940842      -31.139027
 H         -33.225838      -91.363396      -29.612295
 H         -35.367489      -90.940208      -30.834843
 H         -35.324360      -92.701660      -31.396578
