20
 generated by VMD
 C         -47.754936     -136.609573      -45.947697
 N         -46.876942     -136.037582      -46.565022
 H         -51.401680     -135.344086      -45.881775
 H         -48.472488     -137.093781      -45.264072
 C         -51.612324     -136.290192      -45.319134
 C         -52.155834     -137.455078      -46.139488
 C         -51.839138     -136.217667      -43.832184
 C         -51.945946     -138.766724      -45.448166
 C         -51.653576     -137.629166      -43.132446
 C         -52.369003     -138.785950      -43.903839
 H         -51.627926     -137.350830      -47.165840
 H         -53.188286     -137.382782      -46.437187
 H         -51.156269     -135.459320      -43.425648
 H         -52.797379     -135.787567      -43.689617
 H         -50.924347     -139.134628      -45.553715
 H         -52.723019     -139.498016      -45.768364
 H         -51.972794     -137.493347      -42.013855
 H         -50.658192     -138.003525      -43.213707
 H         -52.073956     -139.711121      -43.388027
 H         -53.526531     -138.625854      -43.779865
