20
 generated by VMD
 C         -33.045280      -96.773270      -25.331562
 N         -32.748363      -96.404655      -24.301142
 H         -34.575191      -94.047577      -27.495895
 H         -33.508747      -96.974640      -26.369102
 C         -34.684559      -93.413055      -28.386120
 C         -36.057632      -93.480652      -29.092781
 C         -33.495922      -93.096802      -29.321209
 C         -36.290184      -92.683929      -30.351530
 C         -33.745003      -92.295128      -30.629784
 C         -35.047432      -92.687256      -31.238779
 H         -36.696182      -93.205170      -28.295443
 H         -36.339695      -94.523460      -29.270191
 H         -32.582642      -92.720741      -28.916414
 H         -33.207745      -94.080032      -29.670738
 H         -36.613415      -91.714386      -30.190521
 H         -37.136795      -93.128914      -30.972172
 H         -32.949318      -92.429153      -31.335693
 H         -33.862240      -91.263939      -30.204851
 H         -35.095543      -92.111320      -32.212234
 H         -34.724445      -93.635368      -31.594851
