20
 generated by VMD
 C         -58.414680     -151.227692      -49.394215
 N         -58.662361     -152.074097      -48.698559
 H         -55.549557     -149.666580      -47.815678
 H         -58.198235     -150.353394      -50.004341
 C         -55.102970     -149.436859      -48.747784
 C         -54.314312     -150.462891      -49.478470
 C         -54.979877     -148.028534      -48.951649
 C         -54.138489     -150.097900      -50.937202
 C         -54.891876     -147.764542      -50.360844
 C         -53.831066     -148.651321      -51.114552
 H         -54.867561     -151.405426      -49.299831
 H         -53.387474     -150.620239      -48.922852
 H         -55.822571     -147.477036      -48.651024
 H         -54.266449     -147.570679      -48.336731
 H         -55.078754     -150.404404      -51.439674
 H         -53.302795     -150.608185      -51.358887
 H         -54.443180     -146.632065      -50.412960
 H         -55.858036     -147.864120      -50.761387
 H         -53.880852     -148.367416      -52.139404
 H         -52.795074     -148.399231      -50.744770
