20
 generated by VMD
 C         -39.637077     -105.524849      -37.272972
 N         -40.294651     -104.607231      -36.969429
 H         -39.300034     -108.417534      -35.345200
 H         -38.936878     -106.245911      -37.624317
 C         -39.467522     -108.777870      -34.373108
 C         -38.411018     -108.218903      -33.411530
 C         -40.674309     -109.542473      -33.991802
 C         -38.890614     -108.166702      -31.927292
 C         -40.981178     -109.520126      -32.494183
 C         -39.713276     -109.435425      -31.611012
 H         -38.036808     -107.277916      -33.730621
 H         -37.591553     -108.912170      -33.452312
 H         -41.409107     -109.246521      -34.702248
 H         -40.433407     -110.626404      -34.132172
 H         -39.519112     -107.303261      -31.693769
 H         -38.099682     -108.279755      -31.226166
 H         -41.624866     -110.336243      -32.087650
 H         -41.554241     -108.614517      -32.331745
 H         -39.918255     -109.596069      -30.566233
 H         -39.086220     -110.264305      -31.905050
