20
 generated by VMD
 C         -13.974297      -43.143234       -6.397131
 N         -12.996588      -43.588993       -6.059929
 H         -14.853909      -45.060268       -9.045656
 H         -14.346942      -43.770889      -10.136604
 C         -15.182326      -44.476395       -9.862201
 C         -16.412529      -43.616501       -9.454244
 C         -15.435052      -45.379616      -11.053930
 C         -16.879265      -42.818626      -10.665162
 C         -15.967347      -44.594097      -12.237672
 C         -17.156834      -43.607101      -11.942534
 H         -16.168278      -43.042072       -8.582458
 H         -17.288893      -44.192055       -9.099542
 H         -14.540363      -45.859245      -11.351223
 H         -16.123175      -46.101692      -10.737661
 H         -16.093466      -42.069511      -10.932055
 H         -17.770578      -42.221176      -10.400026
 H         -16.360191      -45.279682      -12.960098
 H         -15.086070      -44.057384      -12.723703
 H         -17.351686      -42.916397      -12.741974
 H         -18.022470      -44.265133      -11.846997
