20
 generated by VMD
 C         -23.142559      -55.216663      -15.046853
 N         -22.699604      -54.980160      -16.111811
 H         -19.942656      -54.407658      -15.325931
 H         -23.512766      -55.200447      -13.943787
 C         -19.493477      -55.189091      -14.816958
 C         -18.801134      -55.033287      -13.456832
 C         -19.451778      -56.576767      -15.416067
 C         -19.406149      -56.155731      -12.553568
 C         -19.231279      -57.782398      -14.546413
 C         -18.941481      -57.514553      -13.102982
 H         -18.829088      -54.051216      -12.982629
 H         -17.677246      -55.150616      -13.612006
 H         -20.308584      -56.660255      -16.008856
 H         -18.760183      -56.682262      -16.279140
 H         -20.491076      -56.153545      -12.638803
 H         -19.027325      -55.983715      -11.495496
 H         -18.410429      -58.386879      -14.946246
 H         -20.175600      -58.379978      -14.623341
 H         -19.385023      -58.248619      -12.455565
 H         -17.842434      -57.470886      -12.892338
