20
 generated by VMD
 C         -57.736534     -168.239655      -55.116161
 N         -56.612152     -168.528793      -54.862968
 H         -61.493389     -167.083603      -55.315987
 H         -58.744686     -167.970322      -55.446110
 C         -62.469582     -166.912033      -55.870163
 C         -62.646748     -167.377106      -57.339462
 C         -63.045864     -165.589951      -55.583458
 C         -64.143700     -167.483307      -57.660522
 C         -64.608170     -165.542480      -55.946999
 C         -64.735855     -166.134796      -57.405968
 H         -62.298206     -168.516525      -57.431816
 H         -62.122734     -166.737198      -57.930294
 H         -63.012730     -165.281097      -54.437611
 H         -62.440029     -164.857590      -56.126873
 H         -64.554016     -168.343323      -57.080074
 H         -64.237579     -167.691971      -58.775539
 H         -64.999283     -164.531128      -56.009418
 H         -65.138031     -166.307190      -55.432304
 H         -65.789421     -166.158981      -57.498444
 H         -64.497902     -165.386658      -58.136768
