20
 generated by VMD
 C         -13.620636      -28.729761       -6.776261
 N         -13.206201      -28.845568       -7.802042
 H         -11.944879      -30.837337       -4.892337
 H         -10.550475      -29.845684       -4.494366
 C         -10.889546      -30.842560       -4.551588
 C         -10.064821      -31.568624       -5.575161
 C         -10.936308      -31.478497       -3.173428
 C          -8.593591      -31.751379       -5.063826
 C          -9.541723      -31.880245       -2.759937
 C          -8.741281      -32.623611       -3.752375
 H          -9.968535      -31.146235       -6.556339
 H         -10.561175      -32.584305       -5.708041
 H         -11.432630      -30.835831       -2.389975
 H         -11.545621      -32.392647       -3.236114
 H          -8.220038      -30.735594       -4.845600
 H          -7.934348      -32.238140       -5.774136
 H          -9.654820      -32.351574       -1.790170
 H          -8.995373      -30.928595       -2.555740
 H          -7.773771      -32.860001       -3.322577
 H          -9.256685      -33.496887       -3.983260
