20
 generated by VMD
 C         -47.712055     -138.022400      -45.937878
 N         -47.274952     -137.670044      -46.942352
 H         -50.281654     -137.861832      -44.530941
 H         -48.052814     -138.401031      -45.011181
 C         -51.318676     -137.936340      -44.810978
 C         -51.387321     -138.554581      -46.149841
 C         -52.499966     -137.657486      -44.065067
 C         -52.337551     -139.685638      -46.159676
 C         -53.568340     -138.712524      -44.196976
 C         -53.759167     -139.265442      -45.587566
 H         -50.339031     -138.875381      -46.533981
 H         -51.680885     -137.803391      -46.933628
 H         -52.246655     -137.442841      -43.020084
 H         -52.901539     -136.639740      -44.323376
 H         -51.811314     -140.681122      -45.788555
 H         -52.588264     -140.014252      -47.194401
 H         -54.473225     -138.475006      -43.705105
 H         -53.409389     -139.620605      -43.520184
 H         -54.319885     -140.263245      -45.594769
 H         -54.315228     -138.587479      -46.366539
