20
 generated by VMD
 C         -68.031937     -185.858093      -67.004280
 N         -68.353088     -184.977020      -67.671936
 H         -68.905800     -188.294342      -64.734802
 H         -67.595184     -186.722916      -66.425613
 C         -69.416611     -187.915619      -63.869457
 C         -68.983284     -186.565628      -63.270691
 C         -70.660583     -188.561401      -63.393272
 C         -69.418365     -186.246628      -61.863434
 C         -70.875854     -188.308578      -61.850197
 C         -70.851952     -186.776184      -61.557243
 H         -69.503883     -185.740112      -63.898319
 H         -67.901550     -186.390610      -63.456799
 H         -71.467873     -188.535614      -64.134445
 H         -70.336174     -189.642334      -63.499630
 H         -69.534035     -185.145279      -61.765476
 H         -68.582520     -186.691879      -61.334690
 H         -70.031273     -188.816193      -61.220364
 H         -71.813080     -188.740768      -61.381889
 H         -71.553810     -186.295486      -62.218395
 H         -71.209946     -186.602661      -60.589024
