20
 generated by VMD
 C         -39.649044     -100.443054      -30.774597
 N         -40.516262     -100.190926      -31.460243
 H         -37.299362     -102.514076      -30.637043
 H         -38.760990     -100.390190      -30.067558
 C         -36.645615     -101.683304      -30.938833
 C         -36.705624     -101.150490      -32.306046
 C         -35.486942     -101.461555      -30.148489
 C         -36.434296      -99.731300      -32.123222
 C         -35.129597      -99.907021      -29.996630
 C         -35.025333      -99.473381      -31.411026
 H         -37.697666     -101.275703      -32.769798
 H         -35.948910     -101.421707      -32.999432
 H         -35.538223     -101.804436      -29.130671
 H         -34.636066     -102.084450      -30.512573
 H         -37.155014      -99.388329      -31.374407
 H         -36.525978      -99.155960      -32.992874
 H         -34.281059      -99.780960      -29.369274
 H         -35.991032      -99.383842      -29.437826
 H         -34.794258      -98.367844      -31.397808
 H         -34.136150      -99.888824      -31.937944
