20
 generated by VMD
 C         -40.628494     -104.180077      -36.703476
 N         -39.844444     -104.994820      -36.513973
 H         -40.443012     -106.892952      -34.416698
 H         -41.247726     -103.321983      -36.691532
 C         -39.623295     -107.416885      -33.926857
 C         -38.492165     -106.622597      -33.320412
 C         -40.052402     -108.773361      -33.443752
 C         -38.430126     -106.876022      -31.838640
 C         -39.735439     -109.113701      -31.991093
 C         -38.460339     -108.435616      -31.530676
 H         -38.570400     -105.581039      -33.493568
 H         -37.509613     -106.797363      -33.773724
 H         -41.185249     -108.895996      -33.502682
 H         -39.644184     -109.643600      -34.038990
 H         -39.251251     -106.375931      -31.384094
 H         -37.463802     -106.523651      -31.512243
 H         -39.523083     -110.245300      -31.858965
 H         -40.609421     -108.979759      -31.355839
 H         -38.418545     -108.702766      -30.547117
 H         -37.662231     -109.095299      -32.041019
