20
 generated by VMD
 C          -1.682395      -14.074189        2.242080
 N          -1.884105      -13.821787        1.177761
 H          -3.905302      -16.959087        1.440272
 H          -4.052817      -17.159006       -0.336338
 C          -4.620974      -17.029625        0.589188
 C          -5.378263      -15.717629        0.640315
 C          -5.528660      -18.211071        0.892182
 C          -6.660491      -15.657983       -0.126868
 C          -6.773295      -18.195379       -0.003190
 C          -7.526422      -16.876471        0.243049
 H          -4.639336      -15.027408        0.204918
 H          -5.496284      -15.326614        1.676761
 H          -4.967263      -19.181843        0.726125
 H          -5.742430      -18.121847        2.035157
 H          -6.451418      -15.666574       -1.179740
 H          -7.252391      -14.737022        0.034922
 H          -7.395652      -18.991520        0.290366
 H          -6.432802      -18.387905       -1.012088
 H          -8.515607      -16.840710       -0.221043
 H          -7.688359      -16.705824        1.307695
