20
 generated by VMD
 C         -78.796539     -209.342484      -76.732155
 N         -79.757866     -208.763245      -77.111488
 H         -78.031776     -208.939041      -72.829605
 H         -77.876892     -209.801514      -76.270317
 C         -77.963402     -209.892365      -72.320206
 C         -76.875839     -210.089340      -71.388062
 C         -79.181671     -210.830246      -72.404190
 C         -77.489525     -210.751862      -70.078171
 C         -79.478546     -211.650787      -71.219185
 C         -78.318871     -211.951248      -70.374397
 H         -76.282356     -209.144775      -71.302223
 H         -76.143997     -210.848404      -71.820084
 H         -80.025856     -210.252045      -72.780479
 H         -78.971443     -211.651215      -73.160065
 H         -77.992699     -209.970963      -69.460220
 H         -76.702904     -211.080338      -69.368286
 H         -79.805069     -212.615051      -71.448883
 H         -80.220482     -211.128479      -70.585365
 H         -78.706993     -212.358658      -69.418648
 H         -77.735886     -212.761078      -70.761879
