20
 generated by VMD
 C         -77.375565     -203.249344      -67.875443
 N         -77.859520     -204.225830      -67.537376
 H         -75.079063     -201.138580      -67.503174
 H         -76.903526     -202.253326      -68.122025
 C         -74.765472     -200.747787      -68.471519
 C         -74.984741     -199.286316      -68.673546
 C         -73.792152     -201.556030      -69.345909
 C         -73.892296     -198.608749      -69.578667
 C         -72.907669     -200.666214      -70.222260
 C         -73.746010     -199.441940      -70.763443
 H         -75.133881     -198.782455      -67.717949
 H         -75.893204     -199.099991      -69.180817
 H         -73.110855     -202.081680      -68.715561
 H         -74.397789     -202.304291      -69.931244
 H         -72.958328     -198.374817      -68.942345
 H         -74.263397     -197.600403      -69.950638
 H         -72.659920     -201.258224      -71.111412
 H         -71.983826     -200.231171      -69.902283
 H         -73.203789     -198.994049      -71.593117
 H         -74.659065     -199.782944      -71.234985
