20
 generated by VMD
 C         -19.981657      -59.397095      -17.453480
 N         -19.344839      -58.883766      -18.226440
 H         -22.626883      -59.730244      -16.102024
 H         -20.460606      -59.723389      -16.427053
 C         -22.914967      -60.798252      -16.098217
 C         -23.430807      -61.601021      -17.250130
 C         -22.744703      -61.422230      -14.711420
 C         -22.885658      -63.040443      -17.124727
 C         -22.506599      -62.895348      -14.767919
 C         -23.366344      -63.580326      -15.786284
 H         -23.257082      -61.104187      -18.147171
 H         -24.471266      -61.615810      -17.283352
 H         -22.071312      -60.785732      -14.001272
 H         -23.656731      -61.235294      -14.109133
 H         -21.785725      -63.033218      -17.061934
 H         -23.308708      -63.679974      -17.976122
 H         -22.857063      -63.331070      -13.783462
 H         -21.440025      -63.205879      -14.736269
 H         -23.234011      -64.695198      -15.803565
 H         -24.447371      -63.362709      -15.718448
