20
 generated by VMD
 C         -13.592761      -44.049873       -6.743589
 N         -13.673454      -43.908737       -5.642417
 H         -14.767713      -44.814751       -9.109988
 H         -14.445959      -43.826973      -10.579941
 C         -15.219497      -44.409065      -10.036494
 C         -16.429516      -43.470089       -9.661787
 C         -15.660412      -45.521248      -10.968207
 C         -16.957254      -42.897507      -10.983599
 C         -16.019764      -45.055893      -12.339316
 C         -17.120586      -43.980915      -12.088769
 H         -16.100437      -42.548660       -9.129612
 H         -17.143160      -44.050903       -9.075442
 H         -14.811373      -46.240559      -10.967954
 H         -16.522181      -46.002113      -10.490769
 H         -16.240862      -42.122475      -11.272962
 H         -17.913559      -42.428852      -10.809447
 H         -16.419451      -45.898212      -12.950715
 H         -15.151902      -44.622063      -12.888232
 H         -17.372210      -43.587246      -13.114224
 H         -18.057549      -44.528980      -11.808517
