20
 generated by VMD
 C         -31.781712      -75.974541      -24.109108
 N         -31.246674      -76.396767      -25.078468
 H         -29.608105      -77.606499      -22.378950
 H         -32.530666      -75.726471      -23.491117
 C         -28.606482      -77.954010      -22.129545
 C         -27.612503      -78.184128      -23.204346
 C         -28.276966      -78.355522      -20.779524
 C         -26.181536      -77.836090      -22.939262
 C         -26.886599      -77.856041      -20.414381
 C         -25.764380      -78.234146      -21.461510
 H         -27.949644      -77.736488      -24.198252
 H         -27.725826      -79.298027      -23.536415
 H         -28.912376      -78.110352      -20.003061
 H         -28.354223      -79.467026      -20.713072
 H         -26.038389      -76.799576      -23.214352
 H         -25.615675      -78.480347      -23.565035
 H         -26.544703      -78.268250      -19.403553
 H         -27.019911      -76.799156      -20.280022
 H         -24.847073      -77.734169      -21.173471
 H         -25.622492      -79.368721      -21.507986
