20
 generated by VMD
 C         -40.557884     -104.323814      -36.427372
 N         -39.623894     -104.981247      -36.647804
 H         -40.064640     -107.443436      -35.079025
 H         -41.314674     -103.595665      -36.075481
 C         -39.824017     -107.577263      -34.028435
 C         -38.716858     -106.804268      -33.413055
 C         -40.027901     -108.963242      -33.521168
 C         -38.521141     -106.980873      -31.899763
 C         -39.844807     -109.107819      -32.017082
 C         -38.500900     -108.388672      -31.581619
 H         -38.643623     -105.794609      -33.801838
 H         -37.738930     -107.199120      -33.772018
 H         -41.032352     -109.434875      -33.793816
 H         -39.284332     -109.722046      -33.779381
 H         -39.381855     -106.579666      -31.430590
 H         -37.589005     -106.551674      -31.525000
 H         -39.910019     -110.237183      -31.651560
 H         -40.679779     -108.630486      -31.454842
 H         -38.370075     -108.493561      -30.496422
 H         -37.543148     -108.853600      -32.067783
