20
 generated by VMD
 C         -47.872662     -136.497177      -45.967728
 N         -46.906189     -136.046997      -46.445328
 H         -50.995228     -135.523209      -45.992054
 H         -48.795128     -136.912628      -45.648335
 C         -51.586216     -136.242966      -45.365238
 C         -52.229454     -137.403641      -46.017384
 C         -51.791821     -136.260773      -43.831474
 C         -51.924210     -138.728058      -45.348705
 C         -51.485668     -137.518997      -43.231056
 C         -52.273113     -138.722672      -43.936863
 H         -51.930840     -137.329605      -47.124233
 H         -53.300140     -137.223465      -46.076496
 H         -51.237061     -135.411560      -43.424488
 H         -52.802628     -136.003586      -43.636822
 H         -50.841583     -138.890778      -45.371315
 H         -52.475487     -139.650803      -45.698719
 H         -51.845566     -137.478317      -42.116978
 H         -50.435978     -137.773010      -43.263058
 H         -52.164307     -139.638870      -43.372055
 H         -53.410866     -138.476883      -43.935253
