20
 generated by VMD
 C         -63.468563     -174.782135      -55.651848
 N         -62.469566     -174.477600      -56.163265
 H         -65.241035     -173.351547      -57.703094
 H         -64.319229     -175.125671      -55.071312
 C         -64.862061     -172.472092      -58.281132
 C         -65.162239     -171.099442      -57.660618
 C         -64.585533     -172.582642      -59.776356
 C         -64.104256     -170.094406      -58.194660
 C         -63.478374     -171.589676      -60.065609
 C         -63.834152     -170.214935      -59.639294
 H         -65.001152     -171.109238      -56.622330
 H         -66.204514     -170.630600      -57.927303
 H         -64.303963     -173.560638      -60.237103
 H         -65.497322     -172.312195      -60.312828
 H         -63.154381     -170.368958      -57.514233
 H         -64.366188     -169.022552      -57.911106
 H         -63.283573     -171.644135      -61.173412
 H         -62.515163     -171.871689      -59.666729
 H         -62.908405     -169.628693      -59.851501
 H         -64.623192     -169.828430      -60.353127
