20
 generated by VMD
 C         -23.402037      -54.144276      -14.932172
 N         -24.274275      -53.496445      -15.341025
 H         -20.151459      -54.790874      -15.474017
 H         -22.303564      -54.643253      -14.653854
 C         -19.188213      -55.079041      -14.827570
 C         -19.037285      -54.386784      -13.541019
 C         -19.050962      -56.652840      -14.926022
 C         -18.479584      -55.268517      -12.417965
 C         -18.118032      -57.303398      -13.890317
 C         -17.474754      -56.282440      -12.972875
 H         -19.993084      -54.019096      -13.213219
 H         -18.405405      -53.526634      -13.706500
 H         -20.132195      -56.991463      -14.665867
 H         -18.850149      -56.889786      -15.970532
 H         -19.317432      -55.835732      -11.976950
 H         -18.003046      -54.553879      -11.748720
 H         -17.271563      -57.780422      -14.452218
 H         -18.543209      -58.054230      -13.291156
 H         -16.937506      -56.794132      -12.141764
 H         -16.751009      -55.705555      -13.595030
