20
 generated by VMD
 C         -40.263798     -104.615417      -36.060627
 N         -39.478836     -104.768272      -36.893856
 H         -40.441105     -107.816811      -35.047844
 H         -41.070946     -104.596085      -35.297707
 C         -40.047562     -107.909950      -34.051064
 C         -38.919445     -107.015373      -33.703232
 C         -39.924469     -109.277161      -33.560802
 C         -38.640987     -107.026459      -32.097694
 C         -39.961220     -109.215492      -32.073959
 C         -38.792480     -108.411484      -31.484818
 H         -38.926125     -105.941490      -34.061142
 H         -38.112843     -107.577782      -34.289219
 H         -40.798496     -109.892082      -34.027843
 H         -38.976749     -109.630852      -34.013779
 H         -39.372314     -106.395004      -31.555557
 H         -37.597504     -106.599823      -31.944933
 H         -39.892380     -110.179756      -31.463915
 H         -40.885143     -108.789215      -31.676119
 H         -38.698055     -108.276413      -30.390762
 H         -37.815083     -108.950928      -31.671637
