20
 generated by VMD
 C         -29.451578      -90.018341      -25.228308
 N         -29.099827      -91.059540      -25.457237
 H         -32.241840      -91.383072      -27.229057
 H         -29.666500      -88.965805      -24.862791
 C         -33.143326      -90.849968      -27.472130
 C         -34.441868      -91.550461      -27.522020
 C         -32.855942      -89.686798      -28.454279
 C         -35.492229      -90.435333      -27.268131
 C         -33.960312      -88.570450      -28.248337
 C         -35.325806      -89.175011      -28.103516
 H         -34.445423      -92.342728      -26.736109
 H         -34.612469      -92.059090      -28.416338
 H         -31.976242      -89.133003      -28.206549
 H         -32.825310      -90.043060      -29.485630
 H         -35.403416      -90.126984      -26.167955
 H         -36.492748      -91.064140      -27.328667
 H         -34.093620      -87.908081      -29.159279
 H         -33.703629      -87.816620      -27.470394
 H         -35.968182      -88.361809      -27.667421
 H         -35.825478      -89.377846      -29.087442
