20
 generated by VMD
 C          -2.210059       -9.779945       -0.080502
 N          -2.262027       -8.765095        0.398745
 H          -2.168012      -11.161405        2.619498
 H          -2.487566      -11.812714        4.102912
 C          -2.790195      -11.907333        3.065955
 C          -2.537114      -13.188561        2.306921
 C          -4.234473      -11.458735        3.014624
 C          -3.517562      -14.277551        2.786434
 C          -5.101935      -12.618745        3.577509
 C          -4.951137      -13.880117        2.767853
 H          -1.450688      -13.512449        2.443257
 H          -2.626600      -12.978444        1.235314
 H          -4.397313      -10.579191        3.751895
 H          -4.594613      -11.072183        2.009074
 H          -3.198409      -14.566171        3.813919
 H          -3.413881      -15.207206        2.159065
 H          -6.148950      -12.325955        3.672037
 H          -4.797630      -12.839959        4.590323
 H          -5.588866      -14.724864        3.042858
 H          -5.263556      -13.690853        1.750640
