20
 generated by VMD
 C         -62.536362     -174.270798      -54.928761
 N         -63.596592     -174.117386      -55.432369
 H         -62.369621     -172.414215      -58.300827
 H         -61.523510     -174.462143      -54.593513
 C         -63.110382     -171.666550      -58.477230
 C         -63.489586     -170.631927      -57.557541
 C         -64.206612     -171.970673      -59.393543
 C         -63.704788     -169.378281      -58.307430
 C         -64.556068     -170.779602      -60.234463
 C         -64.864098     -169.502411      -59.273399
 H         -62.585567     -170.585388      -56.824120
 H         -64.291962     -170.984436      -57.022102
 H         -63.943527     -172.785172      -59.943283
 H         -64.958076     -172.551178      -58.873253
 H         -62.815292     -169.090454      -58.934761
 H         -63.847404     -168.549530      -57.462013
 H         -65.426575     -171.035828      -60.812641
 H         -63.734970     -170.469452      -60.837257
 H         -65.037117     -168.634476      -59.878399
 H         -65.803429     -169.692734      -58.622120
