20
 generated by VMD
 C         -49.733982     -133.165359      -46.943714
 N         -48.952465     -132.293015      -47.065445
 H         -48.100174     -134.482483      -44.538048
 H         -50.141296     -134.138992      -46.655266
 C         -48.970097     -134.704330      -43.905602
 C         -49.291870     -136.171173      -44.089012
 C         -49.875835     -133.763733      -43.150078
 C         -50.060249     -136.726395      -42.928185
 C         -50.539822     -134.467010      -41.998547
 C         -51.210438     -135.817139      -42.495029
 H         -48.284309     -136.719162      -44.231468
 H         -49.800762     -136.237518      -45.063625
 H         -49.257195     -132.913773      -42.806126
 H         -50.626713     -133.406448      -43.785194
 H         -49.269032     -136.798553      -42.155979
 H         -50.244930     -137.828049      -43.041454
 H         -51.247803     -133.769562      -41.533390
 H         -49.835350     -134.735550      -41.166855
 H         -51.741116     -136.390762      -41.691765
 H         -51.625065     -135.677811      -43.439369
