20
 generated by VMD
 C         -40.463482     -104.408241      -36.261166
 N         -39.545807     -104.928322      -36.752037
 H         -40.668156     -107.375381      -34.593616
 H         -41.348141     -104.026077      -35.798340
 C         -39.839092     -107.719330      -33.993549
 C         -38.753387     -106.776581      -33.554646
 C         -39.950523     -109.159561      -33.533543
 C         -38.531891     -106.968475      -32.061554
 C         -39.934746     -109.167488      -32.060165
 C         -38.663048     -108.433037      -31.479496
 H         -39.026730     -105.783859      -33.785061
 H         -37.797367     -106.771034      -34.073112
 H         -40.934315     -109.583801      -33.678856
 H         -39.244076     -109.959908      -33.843613
 H         -39.278446     -106.378059      -31.571951
 H         -37.545494     -106.679764      -31.805979
 H         -40.032436     -110.260986      -31.762955
 H         -40.836021     -108.693550      -31.601202
 H         -38.582752     -108.504761      -30.445082
 H         -37.736084     -108.988831      -31.947208
