20
 generated by VMD
 C         -18.363504      -48.802143       -7.142592
 N         -19.078693      -49.665165       -7.213306
 H         -16.057238      -47.527355      -10.111800
 H         -16.236988      -49.007931      -11.198586
 C         -16.273973      -47.914608      -11.125114
 C         -15.165049      -47.365772      -12.048824
 C         -17.633848      -47.410294      -11.566317
 C         -15.408794      -47.716007      -13.518368
 C         -17.882191      -47.512325      -13.061174
 C         -16.723810      -47.157845      -14.000599
 H         -14.200759      -47.665974      -11.590472
 H         -15.089160      -46.274269      -11.977836
 H         -18.432604      -47.929623      -10.991569
 H         -17.796490      -46.351166      -11.253740
 H         -15.494135      -48.787182      -13.709762
 H         -14.560855      -47.405125      -14.145953
 H         -18.582315      -46.768864      -13.426770
 H         -18.289553      -48.576859      -13.298526
 H         -16.967199      -47.526226      -15.001391
 H         -16.654352      -46.068890      -14.039095
