20
 generated by VMD
 C         -51.428028     -145.648132      -44.011173
 N         -51.325588     -146.435287      -44.870293
 H         -53.561398     -144.922470      -46.607841
 H         -51.316067     -144.864532      -43.232998
 C         -53.690689     -144.310226      -47.487465
 C         -52.765331     -144.231720      -48.657413
 C         -54.845459     -143.384750      -47.386295
 C         -53.495171     -143.912857      -49.973934
 C         -55.368366     -142.910019      -48.709049
 C         -54.389595     -142.739334      -49.763542
 H         -52.347496     -145.340393      -48.778904
 H         -51.890179     -143.582932      -48.587677
 H         -55.673878     -143.709137      -46.815678
 H         -54.507015     -142.683609      -46.606419
 H         -53.946613     -144.743118      -50.527611
 H         -52.816235     -143.490082      -50.728283
 H         -55.975777     -141.919495      -48.634666
 H         -56.128765     -143.575180      -49.126171
 H         -54.830341     -142.585480      -50.764450
 H         -53.680470     -141.800964      -49.536480
