20
 generated by VMD
 C         -74.659233     -201.547607      -66.019257
 N         -73.661606     -200.964340      -66.017448
 H         -76.353424     -199.017120      -68.543442
 H         -75.560875     -202.165375      -66.122902
 C         -75.478996     -198.397400      -68.812798
 C         -75.020668     -197.159943      -68.182610
 C         -74.542480     -198.965118      -69.913124
 C         -73.524094     -196.881744      -68.094009
 C         -73.136223     -198.396408      -70.066666
 C         -72.558708     -197.807800      -68.732964
 H         -75.334862     -197.219833      -67.153244
 H         -75.463936     -196.143143      -68.603821
 H         -74.470436     -200.055634      -69.761681
 H         -75.063385     -198.690002      -70.897720
 H         -73.156776     -196.819595      -67.090874
 H         -73.272987     -195.913086      -68.607925
 H         -73.144592     -197.555542      -70.833076
 H         -72.463295     -199.149918      -70.569221
 H         -72.264641     -198.714737      -68.172195
 H         -71.554077     -197.217545      -68.849136
