20
 generated by VMD
 C         -40.588486     -118.932663      -35.541241
 N         -39.598907     -118.498627      -35.031109
 H         -44.049728     -117.423065      -36.098843
 H         -41.465836     -119.418213      -35.848564
 C         -44.046745     -117.036736      -37.094807
 C         -43.024403     -117.502213      -38.024296
 C         -45.250534     -116.292305      -37.597301
 C         -43.667347     -118.284622      -39.164764
 C         -45.919888     -117.185829      -38.603046
 C         -44.925941     -117.578796      -39.728474
 H         -42.211750     -118.120613      -37.656502
 H         -42.542850     -116.599884      -38.332779
 H         -45.805042     -116.052612      -36.725925
 H         -44.917885     -115.289406      -38.092720
 H         -44.039131     -119.273399      -38.757092
 H         -43.060860     -118.454880      -40.059513
 H         -46.661057     -116.498833      -38.976830
 H         -46.355194     -118.035469      -37.894054
 H         -45.505398     -118.287552      -40.318642
 H         -44.536102     -116.625893      -40.386211
