20
 generated by VMD
 C         -30.473776      -93.993729      -25.493546
 N         -29.489986      -93.637985      -24.947126
 H         -33.780193      -92.721260      -26.895321
 H         -31.416088      -94.335388      -25.906008
 C         -34.292519      -92.050400      -27.619251
 C         -35.740402      -92.159019      -27.803347
 C         -33.428276      -91.415474      -28.652866
 C         -36.352093      -91.488594      -28.986200
 C         -34.131180      -90.498596      -29.603674
 C         -35.500607      -91.016983      -30.159992
 H         -36.282127      -91.960571      -26.925852
 H         -35.866592      -93.245102      -28.008841
 H         -32.563251      -90.896225      -28.191885
 H         -33.127510      -92.235146      -29.243086
 H         -36.701084      -90.546089      -28.575182
 H         -37.297256      -92.064842      -29.344435
 H         -33.672287      -90.268867      -30.538162
 H         -34.358414      -89.573631      -29.051311
 H         -36.031151      -90.153992      -30.620962
 H         -35.369652      -91.875443      -30.940765
