20
 generated by VMD
 C         -47.147270     -137.634583      -46.217808
 N         -47.180565     -136.871994      -47.134216
 H         -50.578476     -136.477814      -44.738884
 H         -47.134827     -138.248596      -45.330250
 C         -51.362118     -137.206558      -44.702389
 C         -51.371605     -138.016693      -46.025318
 C         -52.530056     -137.050934      -43.859692
 C         -52.135777     -139.307770      -45.816563
 C         -53.240555     -138.418610      -43.603436
 C         -53.460552     -139.137741      -45.058384
 H         -50.330360     -138.358566      -46.203785
 H         -51.814125     -137.496078      -46.847263
 H         -52.325920     -136.656723      -42.858501
 H         -53.295803     -136.433701      -44.462204
 H         -51.437584     -139.944122      -45.200977
 H         -52.374283     -139.750290      -46.763741
 H         -54.096481     -138.280411      -43.049030
 H         -52.365795     -138.903625      -43.117229
 H         -53.849262     -140.123245      -44.954285
 H         -53.981049     -138.506592      -45.647747
