20
 generated by VMD
 C         -39.581703     -105.514023      -37.319073
 N         -40.353222     -104.712318      -36.956848
 H         -39.190357     -108.867401      -35.398849
 H         -38.885307     -106.376808      -37.368793
 C         -39.433342     -108.707161      -34.362640
 C         -38.458210     -108.303841      -33.377220
 C         -40.636944     -109.515526      -34.013573
 C         -38.910160     -108.213898      -31.909796
 C         -41.012188     -109.463966      -32.492214
 C         -39.729736     -109.555046      -31.677839
 H         -38.129620     -107.378334      -33.687347
 H         -37.629963     -108.976593      -33.411732
 H         -41.561203     -109.136688      -34.441921
 H         -40.464245     -110.533752      -34.503490
 H         -39.577011     -107.308815      -31.880356
 H         -38.076435     -107.924858      -31.309565
 H         -41.697205     -110.292351      -32.382877
 H         -41.557709     -108.569244      -32.214874
 H         -39.981117     -109.544846      -30.682695
 H         -39.143711     -110.480202      -31.895458
