20
 generated by VMD
 C         -60.027050     -152.625473      -51.017143
 N         -60.912220     -152.749329      -51.686890
 H         -56.899075     -152.989182      -49.441189
 H         -59.170902     -152.476379      -50.365940
 C         -56.077133     -152.272324      -49.558277
 C         -54.628838     -152.817169      -49.541920
 C         -56.251572     -150.821167      -49.750206
 C         -53.766273     -152.395370      -50.757561
 C         -55.465485     -150.533966      -51.158875
 C         -53.917789     -150.902954      -50.915947
 H         -54.750595     -153.924316      -49.612194
 H         -54.175053     -152.607193      -48.520420
 H         -57.305210     -150.644287      -49.697132
 H         -55.702057     -150.240921      -48.982834
 H         -54.159538     -152.873459      -51.672306
 H         -52.722103     -152.707428      -50.693359
 H         -55.779747     -149.465027      -51.386497
 H         -55.827473     -151.206619      -51.831608
 H         -53.445183     -150.618942      -51.917309
 H         -53.453068     -150.278458      -50.248306
