20
 generated by VMD
 C         -11.055305      -34.063786       -8.387985
 N         -11.061931      -33.320728       -9.200555
 H         -11.523466      -37.920616       -7.932799
 H         -12.236405      -37.280052       -6.578907
 C         -12.465197      -38.094715       -7.294387
 C         -12.505832      -39.407467       -6.605907
 C         -13.705407      -37.773834       -8.081276
 C         -13.689075      -39.415524       -5.644859
 C         -14.901696      -37.823372       -7.159299
 C         -14.975555      -39.135281       -6.386671
 H         -11.553681      -39.531971       -6.054120
 H         -12.645063      -40.272388       -7.225249
 H         -13.559278      -36.764084       -8.602421
 H         -13.719821      -38.439568       -8.926248
 H         -13.469502      -38.664024       -4.811797
 H         -13.798894      -40.375805       -5.129816
 H         -15.853329      -37.680489       -7.777837
 H         -14.863299      -36.992466       -6.504517
 H         -15.793180      -39.060028       -5.651478
 H         -15.209017      -39.950901       -7.046210
