20
 generated by VMD
 C         -59.640545     -157.651520      -56.701817
 N         -59.057720     -158.667252      -56.837002
 H         -60.494793     -157.697464      -52.853798
 H         -60.150845     -156.684128      -56.723782
 C         -59.782169     -158.499008      -52.682743
 C         -58.389503     -158.275681      -52.327728
 C         -60.390114     -159.895798      -52.945347
 C         -57.984131     -159.384705      -51.430786
 C         -59.719093     -161.013947      -52.092274
 C         -58.180000     -160.778732      -51.975830
 H         -58.332672     -157.414261      -51.738335
 H         -57.686447     -158.206238      -53.128700
 H         -61.449600     -159.850830      -52.664745
 H         -60.331848     -160.224396      -54.073929
 H         -58.697342     -159.197067      -50.505138
 H         -56.981346     -159.388763      -51.101799
 H         -59.735321     -162.039825      -52.518631
 H         -60.274715     -161.030807      -51.078068
 H         -57.894615     -161.563843      -51.199829
 H         -57.724533     -160.851547      -52.926918
