20
 generated by VMD
 C         -69.300392     -180.310303      -60.394932
 N         -69.258987     -181.483398      -60.405163
 H         -67.312935     -177.235992      -59.527985
 H         -69.348518     -179.201950      -60.271275
 C         -66.346802     -177.290222      -59.887184
 C         -65.995026     -177.231995      -61.373058
 C         -65.264442     -177.110916      -58.805775
 C         -64.860275     -176.302567      -61.633358
 C         -64.304962     -175.993637      -59.190231
 C         -63.678303     -176.085129      -60.652897
 H         -66.917648     -176.858826      -61.896500
 H         -65.818184     -178.198303      -61.787125
 H         -65.798256     -176.911667      -57.793541
 H         -64.774368     -178.064087      -58.722614
 H         -65.399918     -175.336853      -61.650570
 H         -64.570808     -176.277023      -62.689137
 H         -63.393410     -176.050186      -58.547878
 H         -64.835808     -175.023239      -58.973133
 H         -63.035870     -175.179962      -60.971722
 H         -63.112164     -176.991119      -60.854439
