20
 generated by VMD
 C         -67.613640     -179.592163      -58.621777
 N         -68.170670     -179.753555      -59.608841
 H         -67.386093     -177.202682      -60.173672
 H         -67.178467     -179.477798      -57.667847
 C         -66.462334     -176.576462      -60.094643
 C         -66.133255     -175.891800      -61.426598
 C         -65.313324     -177.044327      -59.257076
 C         -64.994713     -174.828049      -61.239552
 C         -64.141388     -176.067444      -59.166374
 C         -63.736671     -175.410019      -60.453854
 H         -67.052628     -175.441696      -61.759449
 H         -65.626869     -176.577438      -62.150753
 H         -65.654648     -177.200302      -58.252186
 H         -64.875183     -178.046860      -59.648796
 H         -65.437103     -173.860336      -60.732864
 H         -64.633614     -174.622284      -62.308014
 H         -63.215187     -176.486130      -58.700562
 H         -64.409340     -175.385300      -58.376862
 H         -63.225159     -174.502289      -60.131882
 H         -63.217773     -176.047211      -61.194939
