20
 generated by VMD
 C         -25.802927      -71.216904      -17.071754
 N         -25.788651      -71.849518      -16.073408
 H         -23.824579      -68.911171      -18.859079
 H         -25.949278      -70.600899      -17.908947
 C         -24.562716      -69.282616      -19.540747
 C         -23.960732      -70.136589      -20.497066
 C         -25.735979      -68.577187      -20.125362
 C         -24.981493      -70.961227      -21.244761
 C         -26.792969      -69.436157      -20.836033
 C         -26.096706      -70.221481      -21.913788
 H         -23.201242      -70.826523      -19.904057
 H         -23.329847      -69.656052      -21.228027
 H         -26.267057      -68.019699      -19.284945
 H         -25.457716      -67.793961      -20.845089
 H         -25.308596      -71.711388      -20.551004
 H         -24.360949      -71.460121      -22.039679
 H         -27.564928      -68.955559      -21.425585
 H         -27.272945      -70.065453      -20.072273
 H         -26.628412      -71.053673      -22.291866
 H         -25.908947      -69.657158      -22.786562
