20
 generated by VMD
 C         -30.125704      -92.707985      -25.367502
 N         -30.928623      -93.435547      -25.813683
 H         -32.836330      -91.380486      -26.504868
 H         -29.368246      -92.158936      -24.884047
 C         -33.594540      -91.290260      -27.231838
 C         -34.847485      -92.126785      -27.422421
 C         -33.154629      -90.510284      -28.530848
 C         -35.862762      -91.615524      -28.453619
 C         -34.358727      -89.972076      -29.401800
 C         -35.348431      -91.119461      -29.781675
 H         -35.309055      -92.101654      -26.281796
 H         -34.465073      -93.190460      -27.558315
 H         -32.662758      -89.564255      -28.185600
 H         -32.428749      -91.053001      -29.128160
 H         -36.567577      -90.926575      -28.035646
 H         -36.454082      -92.535721      -28.754395
 H         -33.947937      -89.671028      -30.417358
 H         -34.812641      -89.008789      -28.991440
 H         -36.121998      -90.737198      -30.483023
 H         -34.816570      -91.884491      -30.381395
