20
 generated by VMD
 C         -50.093441     -130.480225      -45.973564
 N         -50.930527     -130.019943      -45.266693
 H         -47.711380     -132.216705      -44.588131
 H         -49.448795     -130.937103      -46.695171
 C         -48.016762     -132.129593      -43.545010
 C         -48.442398     -133.336578      -42.757854
 C         -48.371811     -130.802948      -42.758606
 C         -47.871075     -133.378403      -41.262192
 C         -47.721485     -130.837906      -41.349628
 C         -48.157070     -132.037247      -40.570553
 H         -48.182495     -134.373917      -43.156307
 H         -49.530495     -133.239807      -42.734661
 H         -47.859386     -129.887558      -43.266785
 H         -49.489479     -130.715729      -42.783474
 H         -46.770138     -133.584473      -41.198452
 H         -48.387417     -134.101242      -40.630329
 H         -48.107452     -129.907944      -40.833260
 H         -46.554150     -130.831528      -41.305481
 H         -47.588753     -132.118774      -39.618698
 H         -49.155815     -131.822739      -40.231102
