20
 generated by VMD
 C          -1.319073      -10.907735        0.764206
 N          -1.137257      -10.023458        1.452988
 H          -3.686397      -12.575361        0.443605
 H          -4.759380      -12.295617        1.752425
 C          -4.320621      -13.109141        1.201273
 C          -3.459940      -13.936853        2.196089
 C          -5.435777      -13.983766        0.622799
 C          -4.245641      -14.651058        3.302061
 C          -6.246280      -14.669011        1.694785
 C          -5.365862      -15.464078        2.682999
 H          -2.731002      -13.269072        2.676080
 H          -2.931054      -14.719230        1.618521
 H          -6.021187      -13.344984       -0.118110
 H          -4.870582      -14.737472        0.000670
 H          -4.610249      -13.935336        4.079568
 H          -3.569057      -15.383208        3.843021
 H          -6.839873      -15.357034        1.138239
 H          -6.975646      -14.034630        2.200639
 H          -6.045744      -15.792689        3.496519
 H          -5.025957      -16.438816        2.253228
