20
 generated by VMD
 C         -40.243832     -100.285828      -30.158449
 N         -40.959293     -100.412445      -31.049002
 H         -37.358192     -101.900719      -30.634609
 H         -39.602028      -99.860901      -29.314556
 C         -36.493492     -101.355843      -30.982260
 C         -36.468479     -100.754608      -32.348866
 C         -35.449360     -101.080612      -29.912706
 C         -35.965290      -99.309242      -32.356922
 C         -34.646488      -99.614120      -30.027824
 C         -34.605724      -99.177406      -31.481308
 H         -37.472080     -100.731003      -32.775822
 H         -35.842842     -101.360550      -33.093227
 H         -35.899128     -101.257248      -28.950174
 H         -34.613831     -101.819992      -30.155228
 H         -36.673923      -98.621086      -31.918959
 H         -35.834366      -99.046089      -33.373386
 H         -33.605476      -99.763443      -29.637659
 H         -35.232822      -98.902168      -29.467268
 H         -34.224911      -98.111839      -31.391203
 H         -33.922146      -99.853813      -32.098370
