20
 generated by VMD
 C         -29.413790      -87.980759      -24.978081
 N         -28.901014      -88.205254      -25.967133
 H         -31.371584      -89.000435      -27.536057
 H         -30.020449      -87.770844      -24.056946
 C         -32.332306      -89.477623      -27.310438
 C         -32.820984      -89.472145      -25.969530
 C         -33.333717      -89.402596      -28.319349
 C         -33.427048      -88.103271      -25.707970
 C         -34.138355      -88.034103      -28.152552
 C         -34.637867      -87.977631      -26.696341
 H         -32.051514      -89.701683      -25.198589
 H         -33.498543      -90.360504      -25.674212
 H         -32.768139      -89.472939      -29.316971
 H         -33.991234      -90.279907      -28.280968
 H         -32.615421      -87.320404      -25.937798
 H         -33.824688      -88.013824      -24.732061
 H         -34.982716      -88.065872      -28.880161
 H         -33.426296      -87.212006      -28.424999
 H         -35.190453      -86.927475      -26.582834
 H         -35.445522      -88.742271      -26.433697
