20
 generated by VMD
 C         -70.314995     -182.707733      -65.209122
 N         -70.735466     -183.707367      -65.563515
 H         -68.008492     -181.363220      -62.921165
 H         -69.802811     -181.787048      -64.877022
 C         -67.544975     -181.420639      -61.979847
 C         -67.687714     -182.578888      -61.137836
 C         -67.009422     -180.213181      -61.453270
 C         -66.492485     -182.854156      -60.251255
 C         -65.914742     -180.461578      -60.425072
 C         -66.159454     -181.624161      -59.416962
 H         -67.890038     -183.376953      -61.956291
 H         -68.634415     -182.426178      -60.440632
 H         -66.494743     -179.669647      -62.310886
 H         -67.740494     -179.561646      -61.077152
 H         -65.670197     -183.186905      -60.874641
 H         -66.583145     -183.646362      -59.606163
 H         -65.629257     -179.503693      -59.951454
 H         -65.052216     -180.783966      -60.979233
 H         -65.186661     -181.622894      -58.870922
 H         -66.855019     -181.372971      -58.691830
