20
 generated by VMD
 C         -41.614281     -102.498802      -35.880287
 N         -41.436054     -103.632645      -35.708237
 H         -39.199806     -104.927475      -34.000637
 H         -41.561169     -101.412056      -36.017857
 C         -38.548679     -105.218300      -33.118629
 C         -37.167725     -104.731331      -32.831371
 C         -39.053383     -106.446732      -32.257534
 C         -36.562317     -104.987984      -31.396324
 C         -38.271435     -106.684509      -31.035360
 C         -36.767693     -106.396194      -31.005264
 H         -37.116940     -103.673302      -33.111107
 H         -36.558067     -105.273224      -33.584232
 H         -40.097313     -106.101517      -31.972057
 H         -39.150867     -107.278885      -32.846149
 H         -37.098927     -104.379303      -30.750051
 H         -35.507408     -104.801071      -31.319456
 H         -38.252144     -107.722244      -30.726824
 H         -38.806999     -106.132973      -30.275654
 H         -36.458946     -106.525085      -30.009811
 H         -36.266804     -107.206985      -31.642885
