20
 generated by VMD
 C         -67.980217     -178.740463      -58.139332
 N         -66.934868     -178.361481      -57.816525
 H         -65.249550     -176.108704      -58.486816
 H         -68.943130     -179.186752      -58.429314
 C         -65.174301     -175.742142      -59.522926
 C         -66.124641     -174.731110      -60.046501
 C         -63.739033     -175.745895      -59.845230
 C         -65.449081     -173.329575      -60.108082
 C         -63.096390     -174.391617      -59.756592
 C         -63.906448     -173.374115      -60.512295
 H         -67.147240     -174.703003      -59.547268
 H         -66.275124     -175.041733      -61.045670
 H         -63.060043     -176.337723      -59.142109
 H         -63.496887     -176.122757      -60.826015
 H         -65.448364     -173.167007      -59.045349
 H         -66.066116     -172.747955      -60.763992
 H         -62.101288     -174.679138      -60.032917
 H         -63.136806     -174.002121      -58.721653
 H         -63.442917     -172.344040      -60.326416
 H         -63.729832     -173.507126      -61.593800
