20
 generated by VMD
 C         -23.132357      -53.416542      -13.520291
 N         -23.458153      -52.744473      -14.350915
 H         -20.778648      -55.142525      -14.118989
 H         -22.899675      -54.404900      -12.883569
 C         -19.633284      -54.906952      -14.044888
 C         -19.175253      -53.537113      -13.721934
 C         -18.635893      -56.004005      -14.338054
 C         -17.717232      -53.415009      -13.072913
 C         -17.481035      -55.918278      -13.333692
 C         -16.769249      -54.557426      -13.297607
 H         -19.964523      -53.073868      -13.111865
 H         -19.291527      -52.854591      -14.545878
 H         -19.053457      -56.946625      -14.248915
 H         -18.231819      -55.933025      -15.375087
 H         -17.751923      -53.384727      -11.964636
 H         -17.262981      -52.478485      -13.387289
 H         -16.775665      -56.626408      -13.678920
 H         -17.794741      -56.189293      -12.285294
 H         -15.978786      -54.539623      -12.507888
 H         -16.253510      -54.403801      -14.281199
