20
 generated by VMD
 C         -66.689209     -190.192993      -66.709778
 N         -67.702820     -190.165359      -66.095779
 H         -70.450195     -190.842346      -66.299843
 H         -65.863533     -190.078003      -67.458237
 C         -71.187401     -190.435059      -65.610260
 C         -72.463043     -191.115173      -65.146027
 C         -70.422417     -189.418030      -64.767349
 C         -73.301910     -190.388916      -64.171265
 C         -71.448357     -188.655304      -63.919876
 C         -72.505661     -189.452271      -63.207310
 H         -72.308540     -192.152359      -64.867455
 H         -73.090805     -191.330276      -65.988716
 H         -69.713631     -189.830307      -64.062363
 H         -69.935081     -188.707840      -65.351021
 H         -73.930687     -191.087158      -63.534737
 H         -73.988731     -189.769150      -64.765320
 H         -71.964355     -188.018326      -64.588219
 H         -70.903099     -188.094101      -63.115051
 H         -72.199127     -190.095459      -62.383450
 H         -73.115234     -188.732040      -62.778053
