20
 generated by VMD
 C         -70.248543     -183.054077      -64.131897
 N         -70.084496     -183.390884      -65.232620
 H         -68.150986     -180.338379      -62.651787
 H         -70.332397     -182.752136      -63.059212
 C         -67.710014     -180.562775      -61.724030
 C         -67.824684     -181.988846      -61.211414
 C         -66.900665     -179.555527      -60.941418
 C         -66.471367     -182.471848      -60.918217
 C         -65.633308     -180.118561      -60.347366
 C         -65.850609     -181.541626      -59.879795
 H         -68.294586     -182.682022      -61.899639
 H         -68.648079     -182.019867      -60.376495
 H         -66.486305     -178.781525      -61.553318
 H         -67.547600     -179.100220      -60.114464
 H         -65.830009     -182.607178      -61.846695
 H         -66.786171     -183.374329      -60.421310
 H         -65.302879     -179.544815      -59.477909
 H         -64.882133     -180.034439      -61.115364
 H         -64.940208     -181.964401      -59.583717
 H         -66.520264     -181.345352      -58.992725
