20
 generated by VMD
 C         -18.129734      -49.430557       -8.527529
 N         -19.165110      -49.871399       -8.572774
 H         -16.424881      -47.353958       -9.950053
 H         -17.208620      -48.830750      -10.542825
 C         -16.717987      -47.917183      -10.848730
 C         -15.439191      -48.258747      -11.695601
 C         -17.718721      -47.075268      -11.653996
 C         -15.692904      -48.697647      -13.100058
 C         -18.087736      -47.759674      -12.953168
 C         -16.813719      -47.943027      -13.771411
 H         -14.869284      -49.095970      -11.248187
 H         -14.862513      -47.312923      -11.754915
 H         -18.639536      -46.996048      -11.055770
 H         -17.412098      -46.045547      -11.898842
 H         -15.998149      -49.739613      -13.114185
 H         -14.743573      -48.650486      -13.617468
 H         -18.724463      -47.084541      -13.611088
 H         -18.629126      -48.719540      -12.793151
 H         -17.086597      -48.483223      -14.665329
 H         -16.435629      -47.002331      -14.106953
