20
 generated by VMD
 C         -41.045345     -119.353279      -34.785213
 N         -40.061596     -119.065666      -35.396149
 H         -43.627102     -117.204613      -36.293686
 H         -41.893616     -119.349754      -34.170654
 C         -43.968391     -117.414391      -37.250858
 C         -43.046055     -117.746292      -38.393948
 C         -45.247334     -116.829994      -37.573803
 C         -43.761284     -118.429527      -39.585514
 C         -45.909916     -117.472900      -38.809086
 C         -45.032833     -117.712921      -40.033745
 H         -42.348980     -118.472656      -38.017185
 H         -42.321663     -116.935242      -38.451241
 H         -45.951397     -116.996162      -36.645973
 H         -45.146950     -115.768379      -37.723869
 H         -43.719162     -119.451378      -39.225822
 H         -43.030968     -118.414452      -40.477497
 H         -46.762367     -116.847664      -39.169136
 H         -46.314270     -118.501648      -38.358475
 H         -45.612713     -118.406639      -40.777813
 H         -44.788731     -116.786018      -40.470470
