20
 generated by VMD
 C         -31.639099      -76.660706      -24.734018
 N         -31.912140      -76.978355      -25.804852
 H         -29.193342      -76.891113      -22.333269
 H         -31.153076      -76.374977      -23.819496
 C         -28.589218      -77.794975      -22.258181
 C         -27.506212      -78.066757      -23.260857
 C         -28.627659      -78.774811      -21.097919
 C         -26.121367      -78.399368      -22.604403
 C         -27.319233      -79.088921      -20.519361
 C         -26.379602      -79.544426      -21.610994
 H         -27.372000      -77.105125      -23.689867
 H         -27.760750      -78.738510      -24.056322
 H         -29.351070      -78.325439      -20.298990
 H         -29.131435      -79.726997      -21.247961
 H         -25.654278      -77.596222      -22.042013
 H         -25.537750      -78.714180      -23.487705
 H         -27.581961      -79.867165      -19.708616
 H         -26.915087      -78.185158      -19.992395
 H         -25.461529      -79.993645      -21.261208
 H         -26.853592      -80.325203      -22.144730
