20
 generated by VMD
 C         -27.596291      -81.137421      -27.454201
 N         -28.695059      -81.533882      -27.582897
 H         -30.186365      -83.323570      -25.528225
 H         -26.678038      -80.829361      -27.138931
 C         -30.779869      -83.961304      -24.888365
 C         -30.427624      -84.045212      -23.416939
 C         -31.256546      -85.278893      -25.507168
 C         -31.683041      -84.686226      -22.694220
 C         -32.568607      -85.579109      -24.756460
 C         -32.400360      -85.783470      -23.306200
 H         -30.154781      -83.165161      -22.821157
 H         -29.618729      -84.674843      -23.191355
 H         -31.232195      -85.133415      -26.624689
 H         -30.559689      -86.125053      -25.414000
 H         -32.473846      -83.847916      -22.591230
 H         -31.295034      -85.023254      -21.772371
 H         -32.909153      -86.488251      -25.154234
 H         -33.365406      -84.792221      -24.838211
 H         -33.411839      -85.870850      -22.808899
 H         -31.940172      -86.713615      -23.148344
