20
 generated by VMD
 C         -23.512177      -54.837093      -14.830837
 N         -23.217772      -54.264168      -15.840046
 H         -20.539963      -54.692638      -14.970738
 H         -24.181126      -55.441673      -14.192479
 C         -19.576952      -55.255325      -14.757790
 C         -18.788101      -54.746204      -13.534562
 C         -19.060875      -56.519566      -15.380328
 C         -18.972391      -55.757046      -12.460935
 C         -18.861795      -57.519993      -14.251685
 C         -18.224895      -56.953632      -12.990425
 H         -19.135443      -53.702244      -13.255650
 H         -17.711969      -54.533897      -13.893832
 H         -19.771517      -56.840389      -16.166967
 H         -18.014763      -56.472324      -15.956493
 H         -20.013140      -56.016979      -12.286658
 H         -18.404497      -55.426281      -11.552219
 H         -18.270535      -58.343746      -14.536505
 H         -19.862139      -57.871761      -13.992955
 H         -18.206850      -57.765820      -12.251843
 H         -17.192020      -56.614460      -13.289526
