20
 generated by VMD
 C         -66.276405     -189.646347      -66.727661
 N         -66.358727     -189.174820      -67.799110
 H         -69.992676     -190.006546      -65.300308
 H         -66.306793     -190.251526      -65.814857
 C         -70.585152     -189.811829      -64.397881
 C         -71.841080     -190.677399      -64.084816
 C         -70.463516     -188.463043      -63.689026
 C         -73.072723     -189.824860      -63.813061
 C         -71.819618     -187.777939      -63.788170
 C         -72.904633     -188.496597      -63.125824
 H         -71.699974     -191.208084      -63.181469
 H         -72.057663     -191.289139      -64.896561
 H         -70.273071     -188.603058      -62.607426
 H         -69.791557     -187.847214      -64.101028
 H         -73.750198     -190.421753      -63.160255
 H         -73.707176     -189.762497      -64.729561
 H         -71.994308     -187.604340      -64.900383
 H         -71.916084     -186.782379      -63.293327
 H         -72.739708     -188.590881      -62.053265
 H         -73.761772     -187.971786      -63.329739
