20
 generated by VMD
 C         -50.259144     -131.029175      -46.497337
 N         -50.297340     -131.328613      -47.598396
 H         -48.417744     -131.837143      -44.022133
 H         -50.186489     -130.901016      -45.447811
 C         -48.895168     -132.253220      -43.187115
 C         -49.380859     -133.691162      -43.218384
 C         -48.627499     -131.520721      -41.983566
 C         -48.644382     -134.486282      -42.163467
 C         -47.839314     -132.386780      -40.993568
 C         -48.516811     -133.733749      -40.734875
 H         -49.260632     -134.203339      -44.201180
 H         -50.415367     -133.640015      -42.866962
 H         -47.940895     -130.687668      -42.068619
 H         -49.572872     -131.093079      -41.442142
 H         -47.624371     -134.709686      -42.543850
 H         -49.096081     -135.434555      -41.883125
 H         -47.653534     -131.699661      -40.086502
 H         -46.808090     -132.588135      -41.298080
 H         -47.963406     -134.419098      -40.109447
 H         -49.558861     -133.491745      -40.442661
