20
 generated by VMD
 C         -78.545616     -210.269775      -76.325935
 N         -77.493439     -210.682480      -76.472969
 H         -80.002525     -212.085831      -74.715843
 H         -79.512932     -209.789810      -76.157776
 C         -79.808495     -212.494568      -73.739807
 C         -78.447662     -212.645340      -73.278931
 C         -80.875069     -213.381546      -73.278755
 C         -78.502838     -212.859955      -71.675636
 C         -80.817558     -213.474350      -71.777191
 C         -79.441811     -213.910172      -71.191109
 H         -77.895103     -211.728745      -73.421928
 H         -78.046562     -213.515030      -73.889565
 H         -81.849403     -212.999100      -73.599480
 H         -80.808372     -214.305679      -73.855438
 H         -78.836441     -211.971695      -71.147293
 H         -77.487350     -212.987244      -71.242836
 H         -81.453743     -214.369186      -71.533203
 H         -81.096397     -212.618027      -71.285812
 H         -79.458542     -214.126129      -70.121040
 H         -79.106453     -214.881470      -71.494217
