20
 generated by VMD
 C         -67.124260     -191.531036      -66.232758
 N         -67.329834     -190.911591      -67.162155
 H         -70.312546     -190.193146      -66.386665
 H         -66.818626     -191.923431      -65.248093
 C         -71.111710     -190.174561      -65.622643
 C         -72.067627     -191.274094      -65.504555
 C         -70.978767     -189.089890      -64.573601
 C         -73.334923     -190.703033      -64.865593
 C         -72.054413     -189.121307      -63.502693
 C         -73.005447     -190.320587      -63.466503
 H         -71.442566     -192.154205      -65.013695
 H         -72.247299     -191.637115      -66.530708
 H         -69.943848     -189.343735      -64.150230
 H         -70.848587     -188.140396      -65.077827
 H         -74.129211     -191.475845      -64.771828
 H         -73.624619     -189.805786      -65.380356
 H         -72.634521     -188.241760      -63.796631
 H         -71.503502     -189.019440      -62.485218
 H         -72.541039     -191.114410      -62.728027
 H         -73.969643     -190.193848      -63.111717
