20
 generated by VMD
 C         -21.938923      -55.346851      -17.476995
 N         -21.640324      -55.760258      -18.481688
 H         -21.369627      -56.677048      -13.924951
 H         -22.441906      -55.022717      -16.431759
 C         -21.188862      -57.770641      -14.048204
 C         -21.222912      -58.655853      -12.958154
 C         -20.764544      -58.126999      -15.501886
 C         -20.889580      -60.133896      -13.247470
 C         -20.262302      -59.618595      -15.610847
 C         -19.677914      -60.253788      -14.270370
 H         -22.212196      -58.626480      -12.457275
 H         -20.460594      -58.264523      -12.196568
 H         -21.561504      -57.919014      -16.143436
 H         -19.989250      -57.455341      -15.883623
 H         -21.747974      -60.615742      -13.672570
 H         -20.811808      -60.682323      -12.316104
 H         -19.478634      -59.728870      -16.354267
 H         -21.058985      -60.270004      -16.059179
 H         -19.400354      -61.326061      -14.399489
 H         -18.751970      -59.698368      -13.912847
