20
 generated by VMD
 C         -72.572914     -198.752380      -65.586449
 N         -73.576836     -199.205566      -65.943283
 H         -71.061485     -196.307953      -67.259605
 H         -71.577744     -198.400009      -65.283760
 C         -71.974548     -196.109497      -67.778992
 C         -72.898300     -195.159256      -67.099548
 C         -72.441185     -196.660416      -69.056313
 C         -74.356049     -195.070312      -67.669044
 C         -73.942940     -197.263550      -68.945518
 C         -74.810287     -196.442780      -67.987053
 H         -72.526451     -194.099319      -67.072510
 H         -72.848221     -195.413101      -66.053619
 H         -72.245781     -196.079514      -69.942291
 H         -71.702866     -197.457886      -69.283813
 H         -74.160683     -194.518860      -68.606873
 H         -74.952408     -194.502167      -66.954155
 H         -73.877281     -198.311768      -68.591644
 H         -74.529800     -197.211639      -69.891937
 H         -75.881790     -196.381622      -68.493439
 H         -74.862648     -196.951523      -67.130745
