20
 generated by VMD
 C         -28.106911      -83.486137      -27.352365
 N         -27.337023      -83.428230      -26.514778
 H         -30.867311      -84.750160      -26.364107
 H         -28.943438      -83.449287      -28.043045
 C         -31.661383      -85.169327      -25.787525
 C         -31.548794      -85.084808      -24.257605
 C         -32.118393      -86.447243      -26.475336
 C         -32.679081      -85.866257      -23.540604
 C         -33.323540      -87.087975      -25.751179
 C         -32.981121      -87.184914      -24.199186
 H         -31.603075      -83.981583      -24.093849
 H         -30.491087      -85.453156      -24.004946
 H         -32.496445      -86.116592      -27.465792
 H         -31.256517      -87.162506      -26.609968
 H         -33.518421      -85.122940      -23.449171
 H         -32.362579      -86.090614      -22.571087
 H         -33.577267      -88.047997      -26.123798
 H         -34.162270      -86.393623      -25.865860
 H         -33.699944      -87.696243      -23.675495
 H         -32.145611      -87.823799      -24.349085
