20
 generated by VMD
 C         -21.062582      -56.439903      -17.096760
 N         -21.050346      -55.450741      -17.731792
 H         -23.226061      -58.878628      -15.946722
 H         -21.201229      -57.406445      -16.548647
 C         -22.218708      -59.191444      -15.616533
 C         -21.918995      -58.981419      -14.069304
 C         -21.699604      -60.319386      -16.376074
 C         -21.010118      -59.963707      -13.365012
 C         -20.451385      -60.935177      -15.728023
 C         -20.707327      -61.198875      -14.240127
 H         -22.936930      -58.985668      -13.600733
 H         -21.444586      -58.038570      -13.923165
 H         -22.522413      -61.019249      -16.303368
 H         -21.631765      -60.088974      -17.429367
 H         -21.535631      -60.211319      -12.385203
 H         -20.039356      -59.429089      -13.232469
 H         -19.675900      -60.188347      -15.682038
 H         -20.129381      -61.824261      -16.306969
 H         -21.560667      -61.891850      -14.214414
 H         -19.910254      -61.792236      -13.869296
