20
 generated by VMD
 C         -67.677406     -179.443069      -58.592155
 N         -68.389229     -180.216858      -58.074837
 H         -66.914032     -176.561295      -59.520969
 H         -67.071548     -178.691498      -59.124470
 C         -65.923775     -176.046036      -59.947552
 C         -66.029579     -175.052078      -61.020370
 C         -64.628380     -176.492065      -59.549973
 C         -64.967812     -173.914673      -60.951164
 C         -63.694748     -175.275162      -59.362556
 C         -63.581196     -174.385941      -60.654312
 H         -67.031380     -174.825195      -61.063519
 H         -65.751587     -175.471695      -62.006149
 H         -64.697128     -177.100021      -58.637711
 H         -64.125259     -177.171021      -60.320297
 H         -65.173904     -173.425735      -59.925510
 H         -65.118431     -173.137192      -61.744022
 H         -62.619637     -175.608414      -59.178585
 H         -63.931522     -174.702103      -58.453556
 H         -62.915363     -173.583969      -60.317760
 H         -63.281605     -175.049088      -61.514805
