20
 generated by VMD
 C         -38.890003     -111.446518      -36.471352
 N         -38.349937     -110.402237      -36.552750
 H         -40.245049     -114.214447      -35.001282
 H         -39.207119     -112.470345      -36.635185
 C         -41.021126     -113.494530      -35.355633
 C         -41.706429     -113.856476      -36.585632
 C         -41.808987     -112.743286      -34.357143
 C         -43.167393     -114.094673      -36.619324
 C         -43.312618     -112.875473      -34.426880
 C         -43.909252     -113.017700      -35.806705
 H         -41.117073     -114.639694      -37.048424
 H         -41.568893     -113.068153      -37.367496
 H         -41.455067     -112.943604      -33.316631
 H         -41.472534     -111.730423      -34.658585
 H         -43.325714     -115.099899      -36.095825
 H         -43.523418     -114.033592      -37.669575
 H         -43.605278     -111.937973      -33.925106
 H         -43.735512     -113.717415      -33.795731
 H         -44.995235     -113.260506      -35.841694
 H         -43.731804     -112.129662      -36.378460
