20
 generated by VMD
 C          -6.829736      -23.305990        3.068795
 N          -6.831029      -22.646294        2.176197
 H          -7.788944      -22.673241       -0.560346
 H          -8.989081      -22.300749       -1.723621
 C          -7.952951      -22.219875       -1.543570
 C          -7.060799      -22.963402       -2.597966
 C          -7.533105      -20.707947       -1.450411
 C          -7.054438      -22.241619       -3.926587
 C          -7.538815      -20.082897       -2.828246
 C          -6.632837      -20.806946       -3.748783
 H          -7.489717      -23.892851       -2.860321
 H          -6.010015      -23.045618       -2.133657
 H          -8.288725      -20.272108       -0.794272
 H          -6.589345      -20.542418       -0.880512
 H          -7.991173      -22.404259       -4.391595
 H          -6.293858      -22.670605       -4.547047
 H          -7.256176      -19.036205       -2.721359
 H          -8.542967      -20.013472       -3.232970
 H          -6.636424      -20.320581       -4.696967
 H          -5.612823      -20.855740       -3.418365
