20
 generated by VMD
 C          -0.917156      -13.426648        0.830138
 N          -0.270792      -13.362510       -0.073106
 H          -4.547791      -13.483421        2.075361
 H          -5.715582      -13.523610        0.738200
 C          -5.274298      -14.108805        1.571719
 C          -6.461238      -14.598822        2.460862
 C          -4.369965      -15.257260        1.068309
 C          -7.233149      -15.624656        1.752066
 C          -5.204772      -16.379251        0.426501
 C          -6.431927      -16.802954        1.219031
 H          -7.143547      -13.671355        2.552057
 H          -6.150889      -14.861410        3.480658
 H          -3.654366      -14.842502        0.305786
 H          -3.649649      -15.651230        1.892787
 H          -7.587751      -15.159474        0.859394
 H          -8.119971      -15.912571        2.294365
 H          -4.564971      -17.227814        0.240343
 H          -5.473977      -16.040813       -0.570719
 H          -7.126036      -17.494717        0.740072
 H          -6.097835      -17.310900        2.149478
