20
 generated by VMD
 C         -57.856560     -166.324860      -56.347137
 N         -58.296612     -167.045502      -55.581585
 H         -60.703190     -165.564133      -54.535370
 H         -57.489288     -165.581741      -57.005390
 C         -61.561699     -165.537292      -55.201160
 C         -61.759796     -166.743713      -56.090698
 C         -62.419334     -164.411102      -55.536575
 C         -63.248138     -167.199127      -56.102188
 C         -63.974148     -164.738770      -55.591473
 C         -64.055145     -165.988541      -56.485779
 H         -61.066792     -167.484848      -55.782398
 H         -61.431129     -166.596390      -57.226646
 H         -62.221081     -163.758575      -54.638390
 H         -62.061066     -163.916672      -56.438377
 H         -63.493092     -167.500595      -55.086361
 H         -63.467232     -168.009888      -56.869247
 H         -64.525589     -163.946304      -56.031834
 H         -64.523872     -164.839325      -54.545551
 H         -65.049660     -166.328369      -56.627609
 H         -63.698395     -165.767105      -57.446152
