20
 generated by VMD
 C         -11.587447      -33.484283       -8.703669
 N         -10.473058      -33.575024       -8.970217
 H         -12.382174      -34.712540       -7.461509
 H         -12.669307      -34.853157       -5.674061
 C         -12.709219      -35.430016       -6.588654
 C         -11.591037      -36.496864       -6.377263
 C         -14.088666      -35.987206       -6.879717
 C         -12.044086      -37.566727       -5.389480
 C         -14.394925      -37.127071       -5.911071
 C         -13.350389      -38.224045       -5.802835
 H         -10.706596      -36.023865       -5.988523
 H         -11.398217      -36.951569       -7.363825
 H         -14.801579      -35.156723       -6.846875
 H         -14.099319      -36.382221       -7.878592
 H         -12.253142      -36.977348       -4.489539
 H         -11.273539      -38.327785       -5.236892
 H         -15.404198      -37.611271       -6.214264
 H         -14.541963      -36.728836       -4.934897
 H         -13.670205      -38.979794       -5.081930
 H         -13.198743      -38.817684       -6.787834
