20
 generated by VMD
 C         -79.734367     -206.918655      -75.617569
 N         -80.040642     -207.360123      -74.558464
 H         -77.071136     -207.896225      -73.036186
 H         -79.611282     -206.336731      -76.476898
 C         -76.880264     -208.364929      -72.130547
 C         -75.697357     -207.962723      -71.368736
 C         -77.767029     -209.516541      -71.684128
 C         -75.953079     -207.780716      -69.925026
 C         -78.232979     -208.931396      -70.237823
 C         -76.916550     -208.921906      -69.360306
 H         -75.322487     -206.950470      -71.678795
 H         -74.854149     -208.652863      -71.564049
 H         -78.728325     -209.518127      -72.221054
 H         -77.364708     -210.539948      -71.623863
 H         -76.490562     -206.815430      -69.720795
 H         -75.008041     -207.610901      -69.341965
 H         -78.989830     -209.623993      -69.741081
 H         -78.734009     -207.988373      -70.313301
 H         -77.288345     -208.643570      -68.400208
 H         -76.244751     -209.805283      -69.250481
