20
 generated by VMD
 C         -79.395676     -208.985031      -76.678444
 N         -79.026657     -210.034225      -76.389961
 H         -78.071854     -209.357346      -73.086250
 H         -79.762993     -207.979034      -77.090553
 C         -77.968544     -210.373840      -72.624763
 C         -77.123344     -210.645096      -71.417114
 C         -79.097832     -211.230606      -72.955994
 C         -77.718307     -211.534851      -70.367020
 C         -79.895370     -211.746750      -71.759438
 C         -78.917465     -212.462982      -70.736938
 H         -76.721474     -209.682449      -71.011688
 H         -76.330185     -211.236389      -71.854744
 H         -79.683846     -210.738953      -73.638786
 H         -78.536186     -211.977280      -73.531433
 H         -78.215271     -210.824921      -69.679939
 H         -76.990555     -211.976242      -69.667625
 H         -80.619774     -212.430023      -72.158684
 H         -80.419250     -210.943512      -71.252785
 H         -79.568253     -212.627274      -69.848915
 H         -78.579399     -213.454727      -71.102417
