20
 generated by VMD
 C         -62.114452     -172.343964      -54.955505
 N         -61.162392     -172.943558      -55.258381
 H         -61.716068     -170.867706      -58.233631
 H         -62.996513     -171.900864      -54.526199
 C         -62.633503     -170.271240      -57.965988
 C         -62.400829     -168.727737      -57.943703
 C         -64.030258     -170.876648      -58.074760
 C         -63.557148     -167.915543      -58.501431
 C         -65.057800     -169.964676      -58.613197
 C         -64.909927     -168.519333      -58.190998
 H         -61.485569     -168.561310      -58.637119
 H         -62.117168     -168.444275      -56.959705
 H         -63.868248     -171.793228      -58.750671
 H         -64.340050     -171.239777      -57.081276
 H         -63.442719     -167.818329      -59.607330
 H         -63.540150     -166.784073      -58.134571
 H         -66.013916     -170.292343      -58.248379
 H         -65.129295     -170.075897      -59.640270
 H         -65.773033     -167.859085      -58.590607
 H         -64.927979     -168.406006      -57.122326
