20
 generated by VMD
 C         -38.733608     -108.002670      -37.434231
 N         -38.993153     -106.987267      -37.987907
 H         -40.226990     -108.341515      -34.938034
 H         -38.698124     -108.886696      -36.837040
 C         -40.473507     -109.280540      -34.503365
 C         -39.578140     -110.339211      -34.309082
 C         -41.877373     -109.440536      -34.085884
 C         -39.787186     -111.180862      -33.004662
 C         -42.064072     -110.114822      -32.746849
 C         -41.359173     -111.487312      -32.859116
 H         -38.516220     -110.031593      -34.275925
 H         -39.599808     -111.026588      -35.202698
 H         -42.293278     -108.412895      -33.988129
 H         -42.458176     -109.803772      -34.881138
 H         -39.378719     -110.489952      -32.164413
 H         -38.942833     -111.958069      -33.023003
 H         -43.071484     -110.278206      -32.550278
 H         -41.585278     -109.412849      -32.008381
 H         -41.614010     -112.115974      -32.039352
 H         -41.684940     -111.871979      -33.803375
