20
 generated by VMD
 C         -68.887169     -185.872040      -66.301834
 N         -68.337227     -186.193893      -67.266830
 H         -69.545929     -183.035645      -63.604607
 H         -69.299759     -185.555145      -65.305542
 C         -69.319893     -183.914566      -62.867767
 C         -70.458771     -184.846222      -62.550465
 C         -67.985878     -184.032181      -62.241245
 C         -70.265892     -185.838257      -61.448380
 C         -67.719566     -185.295990      -61.465775
 C         -68.849434     -186.402069      -61.510239
 H         -70.563911     -185.300491      -63.574318
 H         -71.308304     -184.166443      -62.362289
 H         -67.222572     -184.085373      -63.068329
 H         -67.662834     -183.299988      -61.549484
 H         -70.982788     -186.714325      -61.482964
 H         -70.503670     -185.242065      -60.550907
 H         -67.523018     -184.864243      -60.417408
 H         -66.756203     -185.824387      -61.741932
 H         -68.740967     -187.040039      -62.289291
 H         -68.676025     -186.873413      -60.610401
