20
 generated by VMD
 C         -63.039215     -172.434799      -55.154709
 N         -62.568077     -173.489426      -55.127426
 H         -61.655647     -171.548126      -58.483227
 H         -63.607925     -171.533371      -55.146767
 C         -62.521774     -170.862854      -58.478310
 C         -62.305908     -169.386017      -58.101654
 C         -63.775452     -171.487106      -59.159363
 C         -63.673962     -168.586670      -58.010628
 C         -64.924278     -170.483475      -59.200733
 C         -64.868576     -169.491409      -58.053028
 H         -61.618851     -168.750854      -58.792488
 H         -61.854404     -169.286652      -57.190041
 H         -63.582115     -171.950638      -60.149193
 H         -63.956966     -172.450958      -58.595970
 H         -63.717197     -167.780106      -58.870392
 H         -63.695709     -167.979004      -57.042267
 H         -65.869476     -171.130722      -59.079784
 H         -65.084953     -170.027496      -60.225582
 H         -65.813072     -169.060028      -58.048500
 H         -64.777985     -170.084305      -57.158333
