20
 generated by VMD
 C         -14.731915      -45.468464       -6.492586
 N         -14.535841      -46.377014       -7.114122
 H         -15.333528      -44.121151       -9.058630
 H         -14.546440      -44.174870      -10.710741
 C         -15.489884      -44.285084      -10.156569
 C         -16.424135      -43.276749      -10.660924
 C         -16.000660      -45.757240      -10.289434
 C         -16.770761      -43.710800      -12.105242
 C         -16.236633      -46.157555      -11.744675
 C         -17.208344      -45.156376      -12.365587
 H         -15.849192      -42.342293      -10.739914
 H         -17.311274      -43.090076      -10.054049
 H         -15.291457      -46.554707       -9.933106
 H         -16.924549      -45.735973       -9.696944
 H         -15.841522      -43.491638      -12.662201
 H         -17.460402      -42.975098      -12.522942
 H         -16.606258      -47.235008      -11.888449
 H         -15.272352      -46.127853      -12.294892
 H         -17.278383      -45.244522      -13.490264
 H         -18.187517      -45.460327      -11.962008
