20
 generated by VMD
 C         -53.033913     -146.806564      -45.055931
 N         -52.112000     -147.199371      -44.379196
 H         -54.717281     -146.788895      -47.860645
 H         -53.859341     -146.582672      -45.704365
 C         -54.398003     -145.798996      -48.304150
 C         -53.160637     -145.644836      -49.085758
 C         -55.081089     -144.556061      -47.830742
 C         -53.359573     -144.715988      -50.403259
 C         -55.292328     -143.599518      -48.972900
 C         -53.993797     -143.344772      -49.892475
 H         -52.706894     -146.632645      -49.308678
 H         -52.392525     -145.246521      -48.423355
 H         -56.054199     -144.736343      -47.378311
 H         -54.527023     -144.124985      -47.098808
 H         -53.836517     -145.344589      -51.244129
 H         -52.389824     -144.346817      -50.986229
 H         -55.665459     -142.555664      -48.687351
 H         -56.017464     -143.997208      -49.614960
 H         -54.245399     -142.657623      -50.701031
 H         -53.328449     -142.920227      -49.186646
