20
 generated by VMD
 C         -31.191710      -77.232986      -25.080162
 N         -32.082886      -77.069923      -25.731785
 H         -29.249529      -76.981422      -22.516428
 H         -30.444622      -77.439140      -24.220594
 C         -28.617559      -77.802757      -22.309958
 C         -27.468922      -78.026527      -23.224649
 C         -28.900173      -78.794960      -21.245581
 C         -26.218693      -78.644592      -22.518888
 C         -27.638218      -79.637695      -20.670771
 C         -26.635094      -79.903786      -21.792721
 H         -27.238153      -77.012535      -23.699923
 H         -27.775621      -78.513260      -24.178198
 H         -29.488276      -78.255585      -20.404890
 H         -29.670492      -79.532478      -21.550198
 H         -25.835678      -77.926270      -21.780670
 H         -25.428804      -78.937134      -23.274693
 H         -28.010859      -80.519798      -20.066349
 H         -27.105410      -78.866844      -20.033754
 H         -25.802181      -80.411110      -21.313129
 H         -27.140121      -80.655441      -22.441511
