20
 generated by VMD
 C         -67.596382     -177.891144      -57.635227
 N         -67.342590     -178.763870      -56.928856
 H         -64.569748     -176.455643      -59.277901
 H         -67.854980     -177.171402      -58.357361
 C         -64.561821     -175.435516      -59.690521
 C         -65.754105     -174.538666      -59.668098
 C         -63.229355     -174.959030      -60.143623
 C         -65.417488     -173.044342      -59.492569
 C         -62.903919     -173.475555      -60.234783
 C         -64.215988     -172.688705      -60.479595
 H         -66.266022     -174.859131      -58.723347
 H         -66.393852     -174.608444      -60.521938
 H         -62.322132     -175.467484      -59.719463
 H         -63.177578     -175.188644      -61.178474
 H         -65.012848     -172.911179      -58.428677
 H         -66.276764     -172.360413      -59.800781
 H         -62.209476     -173.133499      -61.040531
 H         -62.410393     -173.335098      -59.275867
 H         -63.807396     -171.687836      -60.359390
 H         -64.432564     -172.735855      -61.578712
