20
 generated by VMD
 C          -1.679725      -13.867002        1.178334
 N          -1.840641      -12.815724        1.512743
 H          -3.725846      -17.276142        1.623388
 H          -4.073589      -17.148424       -0.036373
 C          -4.578395      -17.114687        0.953584
 C          -5.138076      -15.720465        1.134920
 C          -5.601297      -18.224213        0.892329
 C          -6.329249      -15.474875        0.219987
 C          -6.774194      -17.924456       -0.061278
 C          -7.399062      -16.537827        0.401533
 H          -4.409336      -14.887203        0.980234
 H          -5.495412      -15.582799        2.139187
 H          -4.951399      -19.145760        0.626800
 H          -5.986646      -18.404684        1.959346
 H          -6.008498      -15.363222       -0.855473
 H          -6.687439      -14.524160        0.613359
 H          -7.487933      -18.743025        0.115374
 H          -6.484575      -17.894934       -1.090645
 H          -8.202241      -16.243738       -0.266986
 H          -7.803210      -16.612381        1.420854
