20
 generated by VMD
 C         -41.024494     -102.245125      -34.860119
 N         -41.513096     -102.015221      -35.866325
 H         -39.777851     -104.307556      -31.943836
 H         -40.274071     -102.467422      -34.078945
 C         -38.749905     -104.687248      -31.942181
 C         -37.725761     -104.073074      -32.900093
 C         -38.311745     -105.718689      -30.933891
 C         -36.472511     -103.685814      -31.979099
 C         -36.841660     -105.453743      -30.380276
 C         -35.933666     -104.878555      -31.378956
 H         -37.986015     -103.107544      -33.314125
 H         -37.430012     -104.706139      -33.776863
 H         -39.000732     -105.855835      -30.154434
 H         -38.149792     -106.758133      -31.485506
 H         -36.743755     -102.875595      -31.230997
 H         -35.795364     -103.164169      -32.701363
 H         -36.331097     -106.377548      -29.986540
 H         -37.107224     -104.847198      -29.506065
 H         -34.975227     -104.613922      -30.795988
 H         -35.735249     -105.666992      -32.097153
