20
 generated by VMD
 C         -22.635555      -52.537365      -12.014707
 N         -23.773794      -52.390121      -11.751274
 H         -19.838131      -53.929985      -14.426932
 H         -21.472878      -52.501244      -11.862099
 C         -18.886784      -53.598869      -14.020738
 C         -18.386368      -52.261055      -14.458589
 C         -18.022957      -54.623520      -13.404393
 C         -16.879206      -52.069004      -14.335350
 C         -17.280460      -53.819283      -12.424294
 C         -16.279787      -52.878117      -13.207963
 H         -18.865911      -51.435040      -13.985682
 H         -18.760015      -52.144714      -15.505017
 H         -18.699148      -55.382133      -12.991962
 H         -17.302341      -55.047848      -14.058892
 H         -16.513805      -51.052361      -14.235297
 H         -16.433569      -52.440823      -15.278191
 H         -16.643553      -54.562248      -11.856126
 H         -17.894133      -53.277882      -11.762838
 H         -15.672892      -52.217018      -12.570454
 H         -15.522012      -53.478107      -13.706064
