20
 generated by VMD
 C         -78.965439     -209.378433      -77.086525
 N         -79.000450     -209.684677      -75.960716
 H         -77.869522     -210.249161      -73.677689
 H         -78.916817     -209.137711      -78.208443
 C         -78.196609     -210.723984      -72.802711
 C         -77.272346     -211.137833      -71.725815
 C         -79.386772     -211.425766      -72.969086
 C         -78.045235     -211.554352      -70.475708
 C         -80.039215     -212.233963      -71.801643
 C         -78.966591     -212.707260      -70.780167
 H         -76.585320     -210.329727      -71.466148
 H         -76.725922     -211.982483      -72.084251
 H         -80.123894     -210.689850      -73.390434
 H         -79.277031     -212.118591      -73.779213
 H         -78.594048     -210.779358      -69.915108
 H         -77.302368     -211.851944      -69.708496
 H         -80.454231     -213.039978      -72.266052
 H         -80.783203     -211.502365      -71.254219
 H         -79.490364     -212.684250      -69.810616
 H         -78.565697     -213.716843      -71.017998
