20
 generated by VMD
 C         -59.329769     -158.554382      -57.415180
 N         -58.547489     -158.272018      -58.157646
 H         -59.930542     -158.821625      -53.963020
 H         -60.118366     -158.847794      -56.748249
 C         -59.791420     -159.677994      -53.324448
 C         -58.521477     -159.990784      -52.572426
 C         -60.608379     -160.891861      -53.576931
 C         -58.712608     -160.547516      -51.271751
 C         -60.820938     -161.717636      -52.224247
 C         -59.556744     -161.871582      -51.299484
 H         -57.989193     -158.963699      -52.525688
 H         -57.888744     -160.720261      -53.134552
 H         -61.623970     -160.631409      -53.911102
 H         -60.203606     -161.574066      -54.375149
 H         -59.369652     -159.844696      -50.735310
 H         -57.879799     -160.713089      -50.743153
 H         -61.055809     -162.760193      -52.488686
 H         -61.621891     -161.184448      -51.757221
 H         -59.884136     -162.257111      -50.313145
 H         -58.952171     -162.709534      -51.694630
