20
 generated by VMD
 C         -56.671085     -150.075195      -47.675690
 N         -57.674603     -150.416199      -48.121891
 H         -53.355701     -148.502625      -47.464523
 H         -55.727627     -149.877411      -47.157475
 C         -53.695427     -148.048706      -48.433014
 C         -53.168503     -148.740875      -49.549656
 C         -54.541214     -146.831863      -48.620819
 C         -54.104210     -148.829422      -50.769924
 C         -55.579414     -147.013763      -49.651653
 C         -54.991371     -147.569565      -50.985466
 H         -52.615540     -149.691101      -49.301743
 H         -52.360504     -148.254929      -50.076744
 H         -55.116325     -146.706467      -47.689289
 H         -53.807625     -145.939529      -48.632309
 H         -54.776520     -149.705826      -50.699509
 H         -53.481121     -149.022125      -51.671429
 H         -56.064564     -146.087357      -49.790108
 H         -56.485462     -147.701691      -49.418938
 H         -55.694691     -147.760178      -51.781036
 H         -54.210026     -146.813873      -51.269897
