20
 generated by VMD
 C         -13.352337      -28.170389       -3.726674
 N         -13.987746      -27.406395       -4.213630
 H         -10.478922      -28.746614       -2.573025
 H         -10.221122      -27.677336       -3.871191
 C          -9.719023      -28.420706       -3.295509
 C          -9.204107      -29.474442       -4.305057
 C          -8.573262      -27.871498       -2.404880
 C          -8.113956      -28.862883       -5.216245
 C          -7.414886      -27.324396       -3.206944
 C          -6.935616      -28.200991       -4.355888
 H         -10.004445      -29.867462       -4.950724
 H          -8.845062      -30.386232       -3.809256
 H          -8.926392      -27.166986       -1.685316
 H          -8.198765      -28.631973       -1.699452
 H          -8.511007      -28.025618       -5.885494
 H          -7.757686      -29.652018       -5.910631
 H          -6.533162      -27.099949       -2.564913
 H          -7.666787      -26.344675       -3.574545
 H          -6.395635      -27.619495       -5.070992
 H          -6.323658      -29.028738       -3.936620
