20
 generated by VMD
 C         -12.416965      -27.441069       -4.669402
 N         -13.234548      -28.172590       -4.824063
 H         -10.777400      -30.216990       -2.856556
 H         -10.768261      -28.717447       -3.629455
 C         -10.153173      -29.538240       -3.308199
 C          -9.537045      -30.222242       -4.488722
 C          -9.141355      -28.845167       -2.440190
 C          -8.660373      -29.326767       -5.261282
 C          -8.130662      -27.984222       -3.146711
 C          -7.632653      -28.671288       -4.438639
 H         -10.356895      -30.538658       -5.081483
 H          -8.848977      -31.061033       -4.116220
 H          -9.681623      -28.284719       -1.648745
 H          -8.554846      -29.604452       -1.917045
 H          -9.314856      -28.553652       -5.682000
 H          -8.120839      -29.919371       -6.006271
 H          -7.282872      -27.791235       -2.535624
 H          -8.595938      -27.028940       -3.541391
 H          -7.069623      -27.935974       -5.071494
 H          -6.895954      -29.432043       -4.191792
