20
 generated by VMD
 C         -41.155228     -104.581520      -35.896141
 N         -42.087746     -104.940147      -36.458611
 H         -38.390366     -104.043411      -33.098415
 H         -40.141933     -104.471878      -35.503204
 C         -38.205376     -105.094803      -32.782082
 C         -36.845226     -105.505989      -32.136608
 C         -39.105759     -106.036438      -33.419807
 C         -37.126930     -106.694023      -31.097168
 C         -39.374500     -107.050369      -32.295074
 C         -38.156906     -107.638954      -31.718910
 H         -36.359211     -104.561623      -31.716543
 H         -36.140396     -105.996887      -32.917011
 H         -40.066376     -105.518211      -33.765434
 H         -38.648605     -106.565948      -34.190933
 H         -37.472630     -106.241898      -30.145512
 H         -36.166153     -107.195610      -31.034391
 H         -40.019588     -107.923088      -32.610653
 H         -40.086685     -106.667343      -31.584158
 H         -38.421757     -108.433777      -31.108324
 H         -37.635956     -108.157761      -32.599506
