20
 generated by VMD
 C         -32.739624      -96.350006      -25.459255
 N         -32.965240      -95.955994      -24.370050
 H         -34.263027      -93.820862      -27.479176
 H         -32.475853      -96.878166      -26.311464
 C         -34.545048      -93.525154      -28.479437
 C         -35.965885      -93.584496      -28.990307
 C         -33.407795      -93.256615      -29.408495
 C         -36.216461      -92.465446      -29.972204
 C         -33.730270      -92.253311      -30.526180
 C         -35.146969      -92.323395      -31.109985
 H         -36.667652      -93.337151      -28.118629
 H         -36.111839      -94.606560      -29.218714
 H         -32.508389      -92.859009      -28.864975
 H         -32.981445      -94.161728      -29.833412
 H         -36.240273      -91.562614      -29.333607
 H         -37.125156      -92.515419      -30.573456
 H         -32.853985      -92.314804      -31.244171
 H         -33.836376      -91.354622      -30.003994
 H         -35.178085      -91.449173      -31.617441
 H         -35.296825      -93.195152      -31.758411
