20
 generated by VMD
 C         -19.807125      -57.540680      -16.910919
 N         -19.215826      -58.005478      -17.772175
 H         -22.604404      -59.769493      -17.379915
 H         -20.284922      -56.989098      -15.997402
 C         -22.715305      -60.465714      -16.450102
 C         -23.982172      -61.241451      -16.250195
 C         -21.431606      -60.945374      -15.812622
 C         -23.597557      -62.750305      -16.210627
 C         -21.483648      -62.288166      -15.006764
 C         -22.897274      -62.810253      -14.873857
 H         -24.593363      -61.078732      -17.144627
 H         -24.459080      -60.924545      -15.263179
 H         -20.597301      -60.702347      -16.465994
 H         -21.297207      -60.239777      -14.972207
 H         -22.970829      -63.028210      -17.049330
 H         -24.444376      -63.389584      -16.168747
 H         -21.095095      -62.130875      -14.020305
 H         -20.828947      -63.033932      -15.529525
 H         -22.801495      -63.773716      -14.504820
 H         -23.394205      -62.196293      -14.106508
