20
 generated by VMD
 C         -24.790548      -70.572372      -16.582270
 N         -25.109537      -70.869919      -15.520426
 H         -23.884888      -68.528816      -18.632847
 H         -24.722919      -70.236855      -17.685932
 C         -24.457689      -68.697716      -19.543795
 C         -23.812012      -69.303627      -20.688988
 C         -25.859707      -68.180946      -19.692307
 C         -24.835966      -70.312523      -21.418474
 C         -26.714203      -69.145126      -20.339529
 C         -26.206974      -69.688454      -21.691479
 H         -22.926029      -69.822029      -20.352982
 H         -23.608339      -68.635475      -21.609808
 H         -26.291252      -67.793648      -18.780586
 H         -25.658497      -67.285461      -20.275715
 H         -25.091927      -71.182213      -20.742855
 H         -24.439327      -70.799591      -22.313679
 H         -27.700424      -68.639259      -20.416058
 H         -26.795498      -70.017113      -19.606426
 H         -26.971033      -70.412773      -21.971769
 H         -26.079893      -68.856750      -22.367661
