20
 generated by VMD
 C         -58.870396     -161.243210      -56.551769
 N         -58.536427     -160.220200      -57.000137
 H         -59.045269     -164.135529      -55.115543
 H         -59.253094     -162.176422      -56.151520
 C         -59.797668     -163.623688      -54.560825
 C         -59.479832     -163.285126      -53.124447
 C         -61.203335     -163.567627      -54.951614
 C         -60.410217     -162.219223      -52.531746
 C         -62.086170     -162.411545      -54.543880
 C         -61.846512     -162.245651      -53.019581
 H         -58.441727     -162.980896      -52.999157
 H         -59.676083     -164.196625      -52.656261
 H         -61.265800     -163.746628      -56.052853
 H         -61.604782     -164.518448      -54.577454
 H         -59.959774     -161.179199      -52.641693
 H         -60.619522     -162.299149      -51.408417
 H         -63.190403     -162.632965      -54.587776
 H         -61.697025     -161.506500      -55.063732
 H         -62.456490     -161.315002      -52.752579
 H         -62.443035     -163.014954      -52.514820
