20
 generated by VMD
 C          -2.142828       -9.077274        0.789644
 N          -1.635866       -9.661586       -0.049842
 H          -2.552248      -11.897680        2.101393
 H          -3.405353      -12.114802        3.580891
 C          -3.312551      -12.572692        2.588120
 C          -2.843857      -13.979947        2.643112
 C          -4.695435      -12.387096        1.921693
 C          -3.906307      -14.953049        3.122293
 C          -5.704784      -13.374634        2.543581
 C          -5.241242      -14.794904        2.493853
 H          -2.038303      -14.075537        3.394567
 H          -2.399255      -14.337751        1.675539
 H          -4.971231      -11.340803        2.199275
 H          -4.540615      -12.407090        0.766081
 H          -4.153896      -14.683145        4.200120
 H          -3.612545      -16.000113        3.121396
 H          -6.672275      -13.282883        2.129808
 H          -5.801372      -13.110449        3.579600
 H          -6.037411      -15.494361        2.846811
 H          -5.163774      -14.981277        1.423296
