20
 generated by VMD
 C         -47.797413     -125.209076      -39.003479
 N         -47.586628     -126.255554      -38.555206
 H         -45.621807     -123.060547      -37.848972
 H         -47.981514     -124.306511      -39.638264
 C         -45.411880     -123.165085      -38.931431
 C         -44.346863     -124.064484      -39.350922
 C         -45.609180     -121.846481      -39.725948
 C         -44.653057     -124.441200      -40.879322
 C         -45.836922     -122.270760      -41.199947
 C         -44.700409     -123.214622      -41.719864
 H         -44.508095     -124.949036      -38.622894
 H         -43.350986     -123.610733      -39.194263
 H         -46.500595     -121.429680      -39.274570
 H         -44.702538     -121.173531      -39.494698
 H         -45.493160     -125.109901      -41.018513
 H         -43.673553     -124.848824      -41.149948
 H         -45.855072     -121.410141      -41.796219
 H         -46.733269     -122.822525      -41.224495
 H         -45.046043     -123.585159      -42.745144
 H         -43.713608     -122.726715      -41.819103
