20
 generated by VMD
 C         -79.559814     -206.891388      -75.092598
 N         -79.916672     -207.594910      -74.243355
 H         -77.104851     -207.280060      -72.994957
 H         -79.424583     -206.133316      -75.873116
 C         -76.788361     -208.063599      -72.234848
 C         -75.611076     -207.907928      -71.405434
 C         -77.924088     -208.929825      -71.726059
 C         -76.013237     -207.495575      -69.991928
 C         -78.119690     -208.902496      -70.167320
 C         -76.781479     -208.654526      -69.476868
 H         -75.061440     -207.000229      -71.723228
 H         -74.940392     -208.788620      -71.428909
 H         -78.841003     -208.626053      -72.309395
 H         -77.690674     -209.931030      -72.122910
 H         -76.722420     -206.691391      -69.987762
 H         -75.135918     -207.377106      -69.377975
 H         -78.650009     -209.822266      -69.815498
 H         -78.809013     -208.094421      -70.008209
 H         -76.932465     -208.736938      -68.419411
 H         -75.996407     -209.414139      -69.726440
