20
 generated by VMD
 C         -40.019009     -105.659904      -37.023258
 N         -40.194839     -106.685951      -37.549839
 H         -39.010464     -107.636261      -34.710217
 H         -39.705147     -104.862961      -36.319649
 C         -39.205940     -108.544617      -34.191780
 C         -38.367489     -109.330963      -33.136909
 C         -40.668579     -109.061256      -34.491619
 C         -39.219231     -109.617874      -31.901237
 C         -41.423336     -109.253983      -33.222061
 C         -40.579926     -110.163773      -32.226997
 H         -37.536224     -108.598907      -32.883141
 H         -38.033253     -110.318367      -33.625107
 H         -41.188713     -108.258842      -34.966278
 H         -40.542053     -109.960312      -35.184620
 H         -39.213955     -108.632889      -31.487251
 H         -38.774769     -110.305214      -31.235531
 H         -42.377728     -109.715218      -33.467766
 H         -41.501026     -108.265419      -32.729679
 H         -41.160606     -110.151924      -31.267666
 H         -40.510174     -111.264999      -32.599903
