20
 generated by VMD
 C         -44.779053     -122.360672      -35.719570
 N         -44.834534     -123.082138      -34.817413
 H         -45.275375     -122.822426      -39.147820
 H         -44.790184     -121.766251      -36.694572
 C         -44.936222     -121.760277      -39.398029
 C         -43.523293     -121.431656      -39.673714
 C         -46.030754     -120.820930      -39.656815
 C         -43.311409     -120.237396      -40.634693
 C         -45.748028     -119.642723      -40.604820
 C         -44.290882     -119.123924      -40.423893
 H         -43.007092     -122.349991      -39.946442
 H         -42.983990     -120.991837      -38.743637
 H         -46.833805     -121.488602      -40.178703
 H         -46.493336     -120.480530      -38.743832
 H         -43.507057     -120.703186      -41.583920
 H         -42.327328     -119.877754      -40.459442
 H         -46.310432     -118.769257      -40.244541
 H         -45.978371     -119.761627      -41.609825
 H         -44.061092     -118.267799      -41.128075
 H         -44.203987     -118.707466      -39.384514
