20
 generated by VMD
 C         -40.206188     -104.823448      -36.691162
 N         -39.493950     -104.038048      -37.135067
 H         -40.431698     -108.167442      -34.992817
 H         -40.929424     -105.652641      -36.535736
 C         -39.726421     -108.612259      -34.256248
 C         -38.651089     -107.772644      -33.711555
 C         -40.187832     -109.912224      -33.495258
 C         -38.863823     -107.512245      -32.233994
 C         -40.460209     -109.488541      -32.016109
 C         -39.310860     -108.788567      -31.408953
 H         -38.733608     -106.759842      -34.280426
 H         -37.579231     -108.151970      -34.050709
 H         -41.054932     -110.326996      -33.991856
 H         -39.295387     -110.574844      -33.622852
 H         -39.774162     -106.874115      -32.223701
 H         -38.049873     -106.949661      -31.836210
 H         -40.783272     -110.319366      -31.365191
 H         -41.279457     -108.697784      -31.942556
 H         -39.642483     -108.357719      -30.543959
 H         -38.418648     -109.494858      -31.183775
