20
 generated by VMD
 C         -66.909935     -189.943344      -66.991516
 N         -67.388634     -190.118378      -65.926781
 H         -70.620148     -190.756439      -66.305603
 H         -66.410645     -189.542358      -67.864281
 C         -71.154778     -190.330536      -65.489403
 C         -72.362511     -191.090332      -64.999931
 C         -70.419662     -189.438507      -64.573715
 C         -73.202011     -190.270493      -64.111633
 C         -71.498230     -188.518311      -63.990845
 C         -72.449677     -189.293915      -63.208195
 H         -72.127853     -192.090515      -64.644287
 H         -72.973801     -191.420120      -65.890427
 H         -69.799767     -189.827499      -63.791397
 H         -69.650543     -188.694794      -65.088463
 H         -73.896156     -190.819275      -63.524445
 H         -73.956940     -189.770020      -64.755096
 H         -72.023178     -187.886002      -64.798035
 H         -71.107178     -187.764069      -63.318844
 H         -71.999969     -189.963287      -62.482243
 H         -73.129829     -188.457520      -62.681572
