20
 generated by VMD
 C         -68.057091     -189.608810      -67.097145
 N         -67.011414     -189.081726      -67.210991
 H         -68.647049     -188.939255      -63.289528
 H         -69.091873     -189.944351      -66.802322
 C         -69.645599     -188.717133      -63.649208
 C         -70.522881     -189.974777      -63.800144
 C         -70.418785     -187.455185      -63.067829
 C         -71.950676     -189.797379      -64.216103
 C         -71.867973     -187.377518      -63.654518
 C         -72.705490     -188.658417      -63.521435
 H         -70.615265     -190.569824      -62.808689
 H         -69.968636     -190.653595      -64.488174
 H         -70.452217     -187.466736      -61.941700
 H         -69.968208     -186.560822      -63.348530
 H         -72.446686     -190.720032      -64.064545
 H         -71.899437     -189.575989      -65.314850
 H         -71.717560     -187.179184      -64.759323
 H         -72.525826     -186.613617      -63.264626
 H         -73.100945     -188.919113      -62.427238
 H         -73.551857     -188.363342      -64.114159
