20
 generated by VMD
 C         -62.272533     -172.357437      -54.925514
 N         -61.328964     -172.931931      -55.280239
 H         -61.675404     -170.750626      -58.488926
 H         -63.167118     -171.759888      -54.737656
 C         -62.600063     -170.224014      -58.272945
 C         -62.393787     -168.829529      -57.950394
 C         -63.924133     -170.944885      -58.118614
 C         -63.547844     -168.027191      -58.475517
 C         -65.042946     -170.044235      -58.654652
 C         -64.942337     -168.614731      -58.034321
 H         -61.348648     -168.422577      -58.380936
 H         -62.358582     -168.793167      -56.942703
 H         -63.764603     -171.958679      -58.636089
 H         -64.061241     -171.105789      -56.975948
 H         -63.550655     -167.930481      -59.550629
 H         -63.401970     -166.991867      -58.032295
 H         -66.003067     -170.488602      -58.465725
 H         -64.898750     -170.012451      -59.667816
 H         -65.852081     -167.912094      -58.269173
 H         -64.806953     -168.562576      -56.945858
