20
 generated by VMD
 C         -22.346294      -68.171143      -16.604712
 N         -21.950920      -68.422867      -15.553661
 H         -24.152843      -66.251106      -18.018915
 H         -23.004093      -68.095146      -17.562824
 C         -24.705002      -66.485939      -18.948385
 C         -23.992643      -67.143997      -20.158491
 C         -26.174902      -66.566498      -18.928980
 C         -24.418041      -68.648499      -20.323748
 C         -26.595039      -67.958054      -19.161530
 C         -25.938580      -68.656235      -20.311348
 H         -22.953695      -67.069901      -20.029209
 H         -24.270250      -66.554207      -20.950916
 H         -26.663797      -66.330597      -17.978958
 H         -26.657602      -65.842461      -19.762394
 H         -23.883583      -69.212540      -19.553307
 H         -24.053165      -68.930344      -21.364580
 H         -27.626413      -67.910812      -19.437262
 H         -26.492273      -68.668243      -18.358238
 H         -26.303005      -69.690681      -20.418930
 H         -26.362236      -68.130814      -21.191021
