20
 generated by VMD
 C         -29.535818      -89.626938      -25.047312
 N         -29.193758      -89.109436      -26.067516
 H         -32.065033      -90.625298      -26.735634
 H         -29.827234      -89.874443      -24.063751
 C         -32.880116      -90.476952      -27.416363
 C         -34.125126      -90.978508      -27.018105
 C         -32.842880      -89.534966      -28.536833
 C         -34.854733      -89.745102      -26.364330
 C         -33.568035      -88.309235      -28.138435
 C         -34.885754      -88.523872      -27.341032
 H         -34.115112      -91.828308      -26.369957
 H         -34.673420      -91.296364      -27.820078
 H         -31.825523      -89.521790      -28.912296
 H         -33.336872      -90.063179      -29.364588
 H         -34.284199      -89.410080      -25.539576
 H         -35.913605      -89.998314      -26.172859
 H         -33.787827      -87.709579      -29.011753
 H         -32.938072      -87.765617      -27.464117
 H         -35.357208      -87.595169      -26.938427
 H         -35.679367      -88.777176      -28.251429
