20
 generated by VMD
 C         -38.474945     -108.887634      -36.683212
 N         -37.323608     -108.784760      -36.605373
 H         -41.320034     -109.789825      -36.144012
 H         -39.511196     -108.775383      -36.629360
 C         -41.990887     -110.464745      -35.644573
 C         -41.525932     -111.962311      -35.797066
 C         -42.741051     -110.196342      -34.344643
 C         -40.642719     -112.292389      -34.639572
 C         -41.927021     -110.732414      -33.156307
 C         -41.421967     -112.140709      -33.310902
 H         -40.945091     -112.130959      -36.745304
 H         -42.502140     -112.519333      -35.707363
 H         -42.928848     -109.094269      -34.314854
 H         -43.750950     -110.622948      -34.384415
 H         -39.766674     -111.688820      -34.555916
 H         -40.436371     -113.359474      -34.793964
 H         -42.588017     -110.768913      -32.210468
 H         -41.123180     -109.963692      -32.930614
 H         -40.878956     -112.521355      -32.495235
 H         -42.258362     -112.871773      -33.313934
