20
 generated by VMD
 C         -48.411366     -135.709808      -46.390541
 N         -47.481953     -135.776718      -45.705330
 H         -52.136696     -134.888565      -45.909527
 H         -49.459904     -135.596909      -46.678589
 C         -51.730682     -135.695648      -45.201431
 C         -52.412872     -137.037186      -45.516850
 C         -51.309196     -135.599091      -43.741203
 C         -51.526905     -138.243866      -45.066193
 C         -50.445301     -136.805283      -43.332169
 C         -51.145195     -138.169510      -43.553551
 H         -52.819973     -137.004150      -46.575226
 H         -53.306919     -137.012207      -44.898010
 H         -50.617153     -134.676880      -43.773273
 H         -52.144032     -135.394623      -43.021606
 H         -50.637405     -138.241333      -45.634552
 H         -52.092766     -139.194000      -45.106617
 H         -50.354836     -136.681961      -42.277702
 H         -49.517540     -136.803940      -43.780624
 H         -50.442348     -138.970093      -43.238567
 H         -51.898521     -138.306046      -42.949589
