20
 generated by VMD
 C         -19.358713      -60.575390      -17.863314
 N         -20.048454      -59.636841      -17.844135
 H         -22.795309      -59.949932      -15.952962
 H         -18.862198      -61.577282      -17.971069
 C         -23.111975      -61.026192      -16.075138
 C         -23.416405      -61.692108      -17.354696
 C         -23.543392      -61.693565      -14.815047
 C         -22.549921      -62.933586      -17.277039
 C         -23.125971      -63.184265      -14.915827
 C         -23.215078      -63.875088      -16.305765
 H         -23.097408      -61.039494      -18.239033
 H         -24.529924      -61.931530      -17.645390
 H         -22.864225      -61.312347      -13.977481
 H         -24.524485      -61.399326      -14.469831
 H         -21.534149      -62.723328      -17.064119
 H         -22.648420      -63.320396      -18.255365
 H         -23.555111      -63.753666      -14.088663
 H         -22.048338      -63.238148      -14.683905
 H         -22.707062      -64.905853      -16.281963
 H         -24.300177      -64.065285      -16.436544
