20
 generated by VMD
 C         -68.663765     -184.789963      -65.943344
 N         -69.597786     -185.495834      -66.005028
 H         -69.775406     -182.812134      -63.404369
 H         -67.781822     -184.176270      -65.847572
 C         -69.216446     -183.679459      -62.947990
 C         -69.893410     -184.961411      -62.573078
 C         -67.797714     -183.361313      -62.507530
 C         -69.063583     -185.990479      -61.881981
 C         -67.426956     -184.125061      -61.189461
 C         -68.447098     -185.190460      -60.756149
 H         -70.233612     -185.392303      -63.497936
 H         -70.756042     -184.681854      -61.910458
 H         -66.989471     -183.593155      -63.313702
 H         -67.783890     -182.238159      -62.332348
 H         -68.293915     -186.370728      -62.532196
 H         -69.618240     -186.897293      -61.663799
 H         -67.148209     -183.380768      -60.350605
 H         -66.422882     -184.630737      -61.258560
 H         -67.869362     -185.911545      -60.175476
 H         -69.229202     -184.778549      -59.963142
