20
 generated by VMD
 C         -60.684429     -153.339142      -52.062557
 N         -61.358696     -154.205063      -51.565182
 H         -57.701916     -153.907562      -51.741096
 H         -60.023365     -152.597214      -52.485336
 C         -56.894630     -153.352158      -51.285122
 C         -56.395134     -153.920227      -49.985310
 C         -56.100925     -152.211441      -51.885876
 C         -54.844994     -153.751770      -49.648888
 C         -54.584438     -152.310730      -51.697952
 C         -54.149361     -152.458466      -50.281563
 H         -56.735069     -154.993225      -50.042034
 H         -56.872368     -153.396652      -49.170238
 H         -56.284920     -152.139465      -52.936810
 H         -56.445213     -151.263184      -51.405903
 H         -54.329308     -154.700562      -49.915569
 H         -54.776703     -153.584381      -48.549114
 H         -54.049782     -151.349014      -51.966492
 H         -54.255360     -153.115509      -52.253117
 H         -53.020237     -152.488556      -50.061714
 H         -54.510216     -151.528351      -49.825157
