20
 generated by VMD
 C         -61.332527     -156.137146      -54.924633
 N         -60.433155     -155.883591      -55.692532
 H         -59.524948     -155.960815      -51.660587
 H         -62.231354     -156.355209      -54.365433
 C         -58.495449     -156.158417      -51.350605
 C         -57.792610     -154.957932      -50.809471
 C         -57.719856     -157.247131      -52.015011
 C         -56.298447     -155.412064      -50.293541
 C         -56.431591     -157.683701      -51.389545
 C         -55.618912     -156.412964      -51.230469
 H         -58.250721     -154.487045      -49.982697
 H         -57.795944     -154.219208      -51.550461
 H         -58.407539     -158.207031      -51.968464
 H         -57.645199     -156.984985      -53.073326
 H         -56.207844     -155.996506      -49.386349
 H         -55.736473     -154.475006      -50.070709
 H         -56.100998     -158.423599      -52.106377
 H         -56.541470     -158.123444      -50.442387
 H         -54.719761     -156.678391      -50.778679
 H         -55.447163     -155.918869      -52.267952
