20
 generated by VMD
 C         -40.669308     -104.034172      -37.014473
 N         -40.118668     -104.881615      -36.481827
 H         -40.461483     -106.690453      -34.369751
 H         -41.195755     -103.113358      -37.232536
 C         -39.769001     -107.156494      -33.686752
 C         -38.474163     -106.622795      -33.223873
 C         -39.830620     -108.574036      -33.461720
 C         -38.205307     -106.984367      -31.654537
 C         -39.645050     -108.930573      -32.005123
 C         -38.310081     -108.416992      -31.410303
 H         -38.225845     -105.509895      -33.233742
 H         -37.698463     -107.045517      -33.882874
 H         -40.821907     -109.058350      -33.609772
 H         -39.112709     -109.095963      -34.121529
 H         -38.849953     -106.405525      -30.967581
 H         -37.149136     -106.720230      -31.472448
 H         -39.794498     -110.035393      -31.764069
 H         -40.551903     -108.434784      -31.491558
 H         -38.205826     -108.820335      -30.315895
 H         -37.646942     -108.956459      -31.973076
