20
 generated by VMD
 C         -12.381186      -27.465565       -4.653622
 N         -13.194319      -28.181908       -4.863604
 H         -10.775791      -30.165363       -2.687222
 H         -10.942293      -28.822313       -3.733860
 C         -10.243878      -29.535549       -3.320546
 C          -9.573674      -30.284718       -4.497581
 C          -9.141791      -28.943649       -2.400217
 C          -8.656317      -29.317873       -5.294739
 C          -8.174868      -27.962330       -3.222116
 C          -7.588978      -28.700838       -4.401973
 H         -10.255596      -30.700150       -5.218192
 H          -9.067972      -31.224089       -4.105966
 H          -9.625591      -28.324482       -1.612739
 H          -8.602458      -29.762331       -1.952149
 H          -9.231878      -28.525589       -5.819530
 H          -8.228447      -29.864094       -6.171663
 H          -7.408593      -27.600367       -2.575387
 H          -8.796607      -27.054256       -3.441856
 H          -6.914504      -28.048635       -5.013566
 H          -6.969382      -29.467701       -3.993059
