20
 generated by VMD
 C         -11.342829      -38.321804       -7.675634
 N         -11.578934      -37.598171       -6.877593
 H         -12.678153      -41.799408       -9.093551
 H         -13.295631      -40.634499       -7.879918
 C         -13.618008      -41.373417       -8.633613
 C         -14.552270      -42.427719       -8.196817
 C         -14.237753      -40.573376       -9.820589
 C         -15.871555      -41.823677       -7.772666
 C         -15.672153      -40.121994       -9.624810
 C         -16.491957      -41.179237       -9.006068
 H         -14.193489      -42.933437       -7.252146
 H         -14.793934      -43.141190       -9.008632
 H         -13.673868      -39.594727       -9.930840
 H         -14.210663      -41.165504      -10.729656
 H         -15.635771      -41.079906       -7.017057
 H         -16.525845      -42.648563       -7.365957
 H         -16.028547      -39.820293      -10.569821
 H         -15.727101      -39.129185       -9.058728
 H         -17.496094      -40.786507       -8.795816
 H         -16.700020      -42.002048       -9.674102
