20
 generated by VMD
 C         -29.390966      -89.709160      -25.708549
 N         -29.508579      -88.567703      -25.425871
 H         -31.566582      -90.656876      -27.383924
 H         -29.411983      -90.859711      -25.833258
 C         -32.468498      -90.132736      -27.372637
 C         -33.566975      -90.462357      -26.362501
 C         -33.006828      -89.346977      -28.574665
 C         -34.472599      -89.305725      -26.100462
 C         -33.831978      -88.121361      -28.322136
 C         -34.870911      -88.454147      -27.299992
 H         -33.123249      -90.886169      -25.489460
 H         -34.146816      -91.327782      -26.715500
 H         -32.100155      -89.051514      -29.094246
 H         -33.413071      -90.197304      -28.995367
 H         -33.934639      -88.656174      -25.446304
 H         -35.265980      -89.718964      -25.612680
 H         -34.294552      -87.631546      -29.152224
 H         -33.157261      -87.394394      -27.886864
 H         -35.387482      -87.637840      -26.736521
 H         -35.664497      -89.022514      -27.795692
