20
 generated by VMD
 C         -29.216127      -73.428802      -19.234348
 N         -29.685814      -74.409340      -18.833618
 H         -25.853054      -73.219688      -18.860687
 H         -29.008265      -72.533112      -19.864950
 C         -25.425917      -72.910286      -19.871412
 C         -24.875259      -73.930382      -20.792974
 C         -25.605288      -71.451805      -20.407391
 C         -25.582409      -73.905830      -22.107111
 C         -26.364529      -71.514717      -21.850931
 C         -25.537989      -72.515236      -22.726318
 H         -24.834269      -74.974632      -20.436607
 H         -23.860882      -73.785522      -20.896431
 H         -26.262070      -70.805199      -19.772650
 H         -24.627075      -70.910126      -20.423513
 H         -26.638214      -74.309868      -21.997158
 H         -25.107786      -74.680145      -22.768204
 H         -26.455324      -70.478195      -22.263031
 H         -27.359991      -71.789383      -21.600353
 H         -26.134253      -72.590073      -23.673615
 H         -24.554302      -72.288254      -23.003721
