20
 generated by VMD
 C         -67.730515     -178.010315      -57.752815
 N         -67.222717     -178.724915      -56.995060
 H         -64.659950     -176.419067      -58.966343
 H         -68.139519     -177.252640      -58.376183
 C         -64.551750     -175.438354      -59.506035
 C         -65.756424     -174.573746      -59.777447
 C         -63.333172     -175.127792      -60.199108
 C         -65.406624     -173.068909      -59.610394
 C         -63.017258     -173.617569      -60.127373
 C         -64.161255     -172.711136      -60.477531
 H         -66.463997     -174.866959      -59.057812
 H         -66.203194     -174.713776      -60.831955
 H         -62.427189     -175.578934      -59.873951
 H         -63.321636     -175.297379      -61.321865
 H         -65.207008     -172.906784      -58.588387
 H         -66.276939     -172.490570      -59.857018
 H         -62.151024     -173.421860      -60.843025
 H         -62.616711     -173.547226      -59.141388
 H         -63.657955     -171.828049      -60.146923
 H         -64.473099     -172.639465      -61.579765
