20
 generated by VMD
 C          -5.953233      -20.939770        1.871026
 N          -5.991926      -22.042555        1.971511
 H          -4.897366      -18.817961       -1.212295
 H          -5.754710      -19.921268       -0.078439
 C          -5.804552      -19.438641       -1.126272
 C          -5.518361      -20.437593       -2.252567
 C          -7.136784      -18.734053       -1.308529
 C          -6.564562      -21.489853       -2.366729
 C          -8.245877      -19.754675       -1.366493
 C          -8.002949      -20.968025       -2.346395
 H          -4.560800      -20.971540       -2.110814
 H          -5.411512      -19.809536       -3.166815
 H          -7.238535      -17.920870       -0.539619
 H          -7.150065      -18.139341       -2.281186
 H          -6.441087      -22.173435       -1.516169
 H          -6.419581      -22.160702       -3.257810
 H          -9.225075      -19.248075       -1.582983
 H          -8.417808      -20.183794       -0.374903
 H          -8.648887      -21.805601       -2.004105
 H          -8.351491      -20.744442       -3.400065
