20
 generated by VMD
 C         -15.299120      -47.519783       -6.184366
 N         -15.486150      -46.699955       -5.452682
 H         -16.463552      -46.991760       -9.886341
 H         -15.112974      -46.690788      -11.090624
 C         -16.148149      -46.557827      -10.867131
 C         -16.438499      -45.053020      -10.894016
 C         -17.062735      -47.215572      -11.879536
 C         -16.297241      -44.378319      -12.292449
 C         -16.875757      -46.578693      -13.251096
 C         -17.130764      -45.102127      -13.325719
 H         -15.662173      -44.595234      -10.218808
 H         -17.456394      -44.779285      -10.558429
 H         -16.809372      -48.310242      -11.968376
 H         -18.130339      -47.165497      -11.561389
 H         -15.257619      -44.432117      -12.669251
 H         -16.506268      -43.314262      -12.150246
 H         -17.312531      -47.174698      -14.062854
 H         -15.842657      -46.740742      -13.474451
 H         -16.874632      -44.683685      -14.338443
 H         -18.173014      -44.843403      -13.322447
