20
 generated by VMD
 C         -27.575787      -81.331833      -27.052515
 N         -28.405033      -81.866653      -27.658863
 H         -30.421312      -83.744171      -25.863968
 H         -26.802652      -80.813316      -26.660841
 C         -30.887749      -84.356064      -25.117031
 C         -30.603954      -84.179031      -23.615137
 C         -31.727667      -85.408928      -25.774174
 C         -31.774704      -84.607140      -22.855581
 C         -32.708916      -86.018578      -24.811171
 C         -32.319683      -86.030785      -23.307014
 H         -30.467863      -83.108521      -23.466578
 H         -29.753357      -84.824471      -23.410282
 H         -32.236202      -84.902016      -26.552691
 H         -31.222626      -86.251472      -26.218800
 H         -32.582928      -83.903000      -23.007444
 H         -31.508490      -84.489288      -21.760878
 H         -32.958305      -87.023384      -25.243246
 H         -33.647766      -85.483665      -24.809875
 H         -33.159763      -86.325371      -22.709522
 H         -31.511223      -86.833115      -23.173838
