20
 generated by VMD
 C         -19.939022      -61.894184      -17.729116
 N         -19.777481      -61.755856      -16.613388
 H         -21.984905      -64.834488      -16.505520
 H         -20.116091      -62.273598      -18.800968
 C         -22.949619      -65.003166      -16.991480
 C         -23.144985      -64.276939      -18.316971
 C         -24.063551      -65.259239      -16.056015
 C         -24.558867      -64.840729      -18.965939
 C         -25.310289      -65.820137      -16.816906
 C         -25.729427      -65.080376      -18.057905
 H         -22.359383      -64.447266      -18.989124
 H         -23.181396      -63.223331      -18.070002
 H         -23.793663      -66.104973      -15.406748
 H         -24.239452      -64.270447      -15.568149
 H         -24.226002      -65.802505      -19.413122
 H         -24.817770      -64.260216      -19.832638
 H         -26.136709      -65.977745      -16.052559
 H         -25.135794      -66.908997      -17.065943
 H         -26.598577      -65.509422      -18.603783
 H         -26.097372      -64.017632      -17.867418
