20
 generated by VMD
 C         -56.143959     -149.808426      -47.653435
 N         -57.127739     -150.245392      -47.315830
 H         -53.417694     -148.096191      -47.352482
 H         -55.210930     -149.418976      -48.083103
 C         -53.899288     -147.844803      -48.342701
 C         -53.203579     -148.472534      -49.581753
 C         -54.567802     -146.485931      -48.497807
 C         -54.221973     -148.523849      -50.745399
 C         -55.530746     -146.644501      -49.727718
 C         -54.793396     -147.099640      -50.953678
 H         -52.919315     -149.594894      -49.612301
 H         -52.434334     -147.821259      -49.883293
 H         -55.007511     -146.145096      -47.455379
 H         -53.765442     -145.798660      -48.803509
 H         -55.086094     -149.199417      -50.540257
 H         -53.676880     -148.830963      -51.676594
 H         -56.056644     -145.670410      -49.880329
 H         -56.224300     -147.376877      -49.488914
 H         -55.448734     -146.926636      -51.853874
 H         -53.953594     -146.407806      -50.978428
