20
 generated by VMD
 C         -49.581783     -127.164001      -40.133827
 N         -49.487480     -126.901917      -38.996719
 H         -46.575306     -126.779617      -42.473377
 H         -49.405697     -127.447693      -41.165344
 C         -46.324795     -126.231750      -41.562546
 C         -45.245346     -126.648323      -40.587498
 C         -46.740791     -124.744850      -41.539425
 C         -44.137520     -125.604195      -40.580547
 C         -45.524231     -123.900879      -41.394745
 C         -44.622635     -124.219177      -40.289696
 H         -44.854198     -127.580193      -40.761707
 H         -45.699047     -126.764244      -39.566952
 H         -47.366726     -124.437447      -42.382977
 H         -47.430832     -124.694679      -40.737999
 H         -43.675392     -125.647392      -41.574791
 H         -43.309414     -125.834305      -39.903904
 H         -45.982594     -122.938210      -41.288990
 H         -45.086254     -124.049118      -42.437534
 H         -43.843582     -123.437363      -40.285118
 H         -45.179020     -124.183441      -39.336151
