20
 generated by VMD
 C         -29.358187      -89.726028      -25.276024
 N         -29.364870      -88.686539      -25.745975
 H         -31.835512      -90.761665      -27.420355
 H         -29.151234      -90.639763      -24.816671
 C         -32.787697      -90.398872      -27.598959
 C         -33.840576      -90.721405      -26.577513
 C         -32.964375      -89.387878      -28.625296
 C         -34.586517      -89.417915      -26.165277
 C         -33.591427      -88.158699      -28.090912
 C         -34.983604      -88.562134      -27.430012
 H         -33.409344      -91.168190      -25.641106
 H         -34.734200      -91.371162      -26.984419
 H         -31.984461      -89.135956      -29.078993
 H         -33.428749      -90.035835      -29.350637
 H         -34.074768      -88.824150      -25.360518
 H         -35.496243      -89.793137      -25.656759
 H         -33.955109      -87.540688      -28.941654
 H         -32.917358      -87.533943      -27.435463
 H         -35.612602      -87.579666      -27.126408
 H         -35.465508      -89.166901      -28.205210
