20
 generated by VMD
 C         -50.494732     -145.070587      -45.163441
 N         -50.480682     -145.520782      -44.077358
 H         -53.087467     -143.374481      -45.874355
 H         -50.601460     -144.572464      -46.151947
 C         -53.505077     -143.271072      -46.887352
 C         -52.581318     -143.245712      -48.149738
 C         -54.762154     -142.446350      -47.003414
 C         -53.406185     -143.362671      -49.474014
 C         -55.359535     -142.508194      -48.346901
 C         -54.467262     -142.340576      -49.526867
 H         -51.901707     -144.084763      -48.118340
 H         -51.847870     -142.467865      -48.192097
 H         -55.529575     -142.835617      -46.350388
 H         -54.411659     -141.377441      -46.891193
 H         -53.833660     -144.316467      -49.566620
 H         -52.655010     -143.197510      -50.226028
 H         -56.140640     -141.745941      -48.485722
 H         -56.049343     -143.389328      -48.329250
 H         -55.001930     -142.397202      -50.418114
 H         -54.192867     -141.309448      -49.593334
