20
 generated by VMD
 C         -40.406876     -117.914703      -34.701111
 N         -39.426220     -117.370667      -35.041912
 H         -42.209538     -116.471985      -36.729050
 H         -41.107162     -118.675858      -34.316032
 C         -43.079052     -116.684944      -37.314167
 C         -42.811012     -116.895966      -38.817410
 C         -44.458744     -116.238075      -36.821892
 C         -44.014263     -117.525414      -39.536972
 C         -45.597237     -116.947563      -37.606644
 C         -45.394356     -116.930244      -39.137257
 H         -41.914787     -117.509140      -38.904713
 H         -42.589878     -115.922661      -39.262627
 H         -44.572083     -116.185455      -35.744652
 H         -44.633636     -115.118217      -37.104042
 H         -43.917854     -118.575104      -39.311409
 H         -43.786240     -117.352844      -40.584641
 H         -46.552071     -116.477188      -37.377750
 H         -45.719646     -118.028145      -37.470673
 H         -46.161987     -117.509460      -39.615623
 H         -45.297409     -115.891571      -39.377396
