20
 generated by VMD
 C         -60.800171     -155.177780      -52.510235
 N         -60.693409     -154.019745      -52.156097
 H         -57.771023     -154.378601      -52.854149
 H         -60.959572     -156.178604      -52.864868
 C         -57.064556     -154.093719      -52.083271
 C         -57.399490     -154.077866      -50.674988
 C         -55.804722     -153.460052      -52.513622
 C         -56.283073     -154.453766      -49.681084
 C         -54.656334     -153.882675      -51.603394
 C         -55.026917     -153.800949      -50.029194
 H         -58.217693     -154.734055      -50.656555
 H         -57.778118     -153.079453      -50.424957
 H         -55.608067     -153.881149      -53.525261
 H         -55.844063     -152.370789      -52.480022
 H         -56.293560     -155.636124      -49.457275
 H         -56.542671     -153.896637      -48.784622
 H         -53.681957     -153.428452      -51.704231
 H         -54.517372     -154.934418      -51.953011
 H         -54.277889     -154.215759      -49.375298
 H         -55.152271     -152.648544      -49.919964
