20
 generated by VMD
 C         -59.960552     -156.767578      -56.143757
 N         -60.966259     -156.292465      -56.305988
 H         -59.653824     -157.467743      -53.421974
 H         -59.026760     -157.298172      -55.919659
 C         -58.850819     -157.890030      -52.846260
 C         -57.743935     -157.031845      -52.397381
 C         -58.643257     -159.403442      -52.464252
 C         -57.300495     -157.227798      -51.039158
 C         -58.400471     -159.500259      -50.951691
 C         -57.188507     -158.716614      -50.648540
 H         -58.040226     -156.028992      -52.678982
 H         -56.723881     -157.297287      -53.011330
 H         -59.618347     -159.921036      -52.738930
 H         -57.808331     -159.950363      -52.959770
 H         -57.980663     -156.806946      -50.216396
 H         -56.452511     -156.636658      -50.777817
 H         -58.201111     -160.557190      -50.670563
 H         -59.277622     -159.174652      -50.228821
 H         -57.050503     -158.688644      -49.474888
 H         -56.297119     -159.179260      -50.955631
