20
 generated by VMD
 C         -67.026985     -189.800247      -67.022896
 N         -67.183372     -190.135284      -65.947517
 H         -70.484856     -190.655579      -66.344826
 H         -66.992638     -189.694061      -68.066536
 C         -71.067070     -190.365906      -65.493530
 C         -72.259468     -191.092300      -64.857468
 C         -70.413620     -189.340057      -64.693642
 C         -73.312050     -190.203491      -64.120293
 C         -71.399406     -188.397141      -63.863144
 C         -72.584579     -189.281998      -63.173920
 H         -71.945015     -191.820724      -64.138405
 H         -72.645050     -191.860764      -65.543915
 H         -69.699341     -189.723801      -63.990349
 H         -69.691757     -188.631989      -65.306541
 H         -74.066704     -190.769257      -63.597897
 H         -73.996849     -189.636429      -64.808548
 H         -71.862602     -187.628204      -64.590469
 H         -70.958328     -187.778870      -63.079643
 H         -72.254189     -189.971222      -62.410248
 H         -73.276878     -188.422577      -62.770245
