20
 generated by VMD
 C         -60.558956     -156.258026      -54.664490
 N         -60.209896     -155.449371      -55.350029
 H         -59.776913     -157.043869      -51.630352
 H         -60.937462     -156.900162      -53.911964
 C         -58.812836     -157.017807      -52.046974
 C         -58.064629     -155.716248      -52.111771
 C         -57.940147     -158.213242      -52.041862
 C         -57.022396     -155.674759      -50.951393
 C         -56.805080     -158.272507      -50.972172
 C         -56.100685     -156.861008      -51.018368
 H         -58.755238     -154.963379      -51.888248
 H         -57.558689     -155.512833      -53.030186
 H         -58.481350     -159.138138      -51.959797
 H         -57.374321     -158.179047      -53.044464
 H         -57.537090     -155.762390      -49.927860
 H         -56.288574     -154.873901      -51.096249
 H         -56.119671     -159.083328      -51.169857
 H         -57.297077     -158.355591      -50.016861
 H         -55.407578     -156.826401      -50.073296
 H         -55.538628     -156.737350      -51.881752
