20
 generated by VMD
 C         -20.761362      -56.520729      -16.845152
 N         -21.297615      -55.711018      -17.529638
 H         -22.881174      -58.570797      -16.252539
 H         -20.279806      -57.414837      -16.417643
 C         -22.032457      -59.131649      -15.845094
 C         -22.236240      -59.085213      -14.336863
 C         -21.686342      -60.495281      -16.408930
 C         -20.985003      -59.789890      -13.622968
 C         -20.551735      -61.245842      -15.720812
 C         -20.864370      -61.257786      -14.155786
 H         -23.231888      -59.535805      -14.194033
 H         -22.190666      -58.060471      -13.995020
 H         -22.572697      -61.138493      -16.425531
 H         -21.417076      -60.284458      -17.450109
 H         -21.158287      -59.665257      -12.533547
 H         -20.055712      -59.279980      -13.964319
 H         -19.556547      -60.754021      -15.911239
 H         -20.658579      -62.259907      -16.141459
 H         -21.713177      -61.920700      -13.972462
 H         -20.056566      -61.853306      -13.677517
