20
 generated by VMD
 C         -40.694897     -119.239624      -35.164104
 N         -39.679062     -118.674377      -35.187531
 H         -43.491375     -116.790695      -36.264008
 H         -41.658463     -119.807800      -35.286598
 C         -44.034595     -117.154686      -37.154350
 C         -42.994598     -117.530655      -38.201908
 C         -45.364056     -116.515076      -37.576298
 C         -43.723736     -118.418022      -39.256435
 C         -46.019073     -117.177155      -38.756145
 C         -44.912304     -117.659119      -39.824516
 H         -42.176556     -118.113228      -37.725414
 H         -42.712368     -116.537094      -38.623753
 H         -46.144135     -116.533394      -36.716183
 H         -45.193069     -115.490982      -37.855431
 H         -43.892860     -119.336830      -38.720818
 H         -42.966557     -118.529312      -40.079884
 H         -46.753986     -116.664024      -39.385551
 H         -46.515553     -118.029671      -38.445061
 H         -45.380646     -118.357651      -40.646793
 H         -44.570194     -116.783997      -40.307804
