20
 generated by VMD
 C         -29.504984      -79.958511      -26.468412
 N         -29.728844      -80.135628      -27.614559
 H         -28.318401      -82.702637      -24.852636
 H         -29.604733      -79.694344      -25.456791
 C         -29.183474      -83.001556      -24.323431
 C         -29.298218      -82.741165      -22.840086
 C         -29.990110      -84.046265      -24.896189
 C         -30.686344      -82.722527      -22.280054
 C         -31.340576      -84.226341      -24.258112
 C         -31.469366      -84.034981      -22.691692
 H         -28.771376      -81.739418      -22.783279
 H         -28.552303      -83.300926      -22.288532
 H         -30.158777      -83.844360      -26.031864
 H         -29.504990      -85.008270      -24.842913
 H         -31.156109      -81.857101      -22.641256
 H         -30.723791      -82.511566      -21.140703
 H         -31.780209      -85.279411      -24.540977
 H         -32.070122      -83.504379      -24.666336
 H         -32.460304      -83.995712      -22.124855
 H         -30.861509      -84.806915      -22.174063
