20
 generated by VMD
 C         -22.635429      -68.339211      -16.654999
 N         -22.671875      -68.963501      -15.686979
 H         -24.154894      -65.927582      -18.701345
 H         -22.804230      -67.751602      -17.650290
 C         -24.600651      -66.852570      -19.101313
 C         -23.941439      -67.485939      -20.203098
 C         -26.088200      -66.812920      -19.059275
 C         -24.422142      -68.837128      -20.515453
 C         -26.717701      -68.210083      -19.186214
 C         -25.959665      -68.866905      -20.423933
 H         -22.825665      -67.577782      -19.947691
 H         -24.087584      -66.804436      -21.090269
 H         -26.447306      -66.500038      -18.105413
 H         -26.519054      -65.970062      -19.658304
 H         -23.956911      -69.481590      -19.802967
 H         -24.181448      -69.146202      -21.535048
 H         -27.822037      -68.179344      -19.192289
 H         -26.478445      -68.752892      -18.267328
 H         -26.102274      -69.975166      -20.487133
 H         -26.203777      -68.383163      -21.399256
