20
 generated by VMD
 C         -79.090973     -208.130005      -75.322250
 N         -78.411354     -207.244598      -75.718361
 H         -79.245140     -210.051498      -73.383057
 H         -79.758881     -209.052338      -75.275360
 C         -78.532013     -210.038544      -72.551750
 C         -77.255157     -209.153992      -72.385986
 C         -78.885132     -211.097870      -71.486435
 C         -77.083748     -208.689758      -70.943764
 C         -78.375313     -210.669373      -70.111099
 C         -77.047272     -209.952286      -69.941399
 H         -77.257492     -208.292465      -73.074974
 H         -76.402626     -209.842911      -72.510826
 H         -79.995827     -211.226639      -71.506882
 H         -78.478012     -212.120712      -71.589661
 H         -77.949440     -208.045700      -70.638840
 H         -76.155258     -208.186279      -70.678566
 H         -78.295280     -211.476746      -69.341919
 H         -79.206131     -210.078033      -69.725517
 H         -77.048302     -209.419418      -68.970978
 H         -76.226677     -210.725830      -69.990585
