20
 generated by VMD
 C         -73.879066     -200.469681      -65.586708
 N         -73.078880     -201.135452      -65.051842
 H         -72.935768     -197.719345      -66.599129
 H         -74.613548     -200.110489      -66.227043
 C         -73.349510     -197.284805      -67.495598
 C         -73.997353     -195.946716      -67.288887
 C         -72.854301     -197.765625      -68.728439
 C         -73.769081     -195.117310      -68.531975
 C         -73.766037     -197.384644      -69.859886
 C         -74.262978     -195.842453      -69.722969
 H         -73.531044     -195.494888      -66.452866
 H         -75.049889     -196.155060      -66.923256
 H         -71.905739     -197.203003      -68.844849
 H         -72.613716     -198.841812      -68.698921
 H         -72.700798     -194.935577      -68.667297
 H         -74.303528     -194.126694      -68.491081
 H         -74.664680     -198.061447      -69.855148
 H         -73.315651     -197.654816      -70.786362
 H         -73.886322     -195.371674      -70.710617
 H         -75.278847     -195.910782      -69.823738
