20
 generated by VMD
 C         -47.605595     -136.663589      -45.933544
 N         -46.987274     -136.163254      -46.764187
 H         -50.976879     -135.588776      -45.694309
 H         -48.141041     -137.151154      -45.092308
 C         -51.313446     -136.491699      -45.204750
 C         -51.960190     -137.539856      -46.121014
 C         -51.982201     -136.404633      -43.910568
 C         -52.050777     -138.897217      -45.435848
 C         -51.958660     -137.825943      -43.237026
 C         -52.716572     -138.764175      -44.048046
 H         -51.315022     -137.516251      -46.980412
 H         -53.042374     -137.230057      -46.369881
 H         -51.325222     -135.813950      -43.224796
 H         -53.012783     -136.036789      -43.999512
 H         -50.991302     -139.121155      -45.377228
 H         -52.427326     -139.819336      -46.027622
 H         -52.512531     -137.696899      -42.311142
 H         -50.902946     -138.184052      -42.872990
 H         -52.500061     -139.837189      -43.660378
 H         -53.805157     -138.503433      -44.220600
