20
 generated by VMD
 C         -20.680288      -57.406258      -16.672155
 N         -20.131021      -56.408962      -16.404882
 H         -22.878799      -60.130711      -17.818769
 H         -20.884165      -58.364506      -16.834173
 C         -22.404558      -60.346916      -16.906046
 C         -23.062088      -59.869766      -15.726100
 C         -21.311871      -61.505623      -16.831137
 C         -22.360954      -60.189243      -14.353079
 C         -20.901918      -62.079563      -15.495381
 C         -21.867914      -61.638664      -14.395717
 H         -24.073729      -60.380131      -15.749490
 H         -23.225222      -58.819710      -15.767687
 H         -21.598644      -62.325623      -17.544504
 H         -20.454258      -61.150536      -17.398575
 H         -23.120138      -60.140747      -13.540909
 H         -21.511381      -59.563595      -14.192855
 H         -19.877363      -61.895611      -15.283349
 H         -21.040541      -63.132191      -15.688964
 H         -22.720404      -62.313263      -14.130124
 H         -21.216892      -61.797775      -13.539706
