20
 generated by VMD
 C         -13.764014      -42.829826       -5.951798
 N         -12.885875      -43.297733       -6.472607
 H         -15.057655      -45.129761       -8.890551
 H         -14.297240      -43.924374       -9.752718
 C         -15.222307      -44.523312       -9.757212
 C         -16.392300      -43.577152       -9.368561
 C         -15.394293      -45.238968      -11.104393
 C         -16.907837      -42.776886      -10.534658
 C         -15.864685      -44.284164      -12.194882
 C         -17.127085      -43.537319      -11.830215
 H         -16.232201      -42.961399       -8.455964
 H         -17.173140      -44.243362       -8.975311
 H         -14.450972      -45.699436      -11.372459
 H         -16.024275      -46.068317      -11.112567
 H         -16.214447      -41.914730      -10.717810
 H         -17.871151      -42.311848      -10.254560
 H         -15.968582      -44.951614      -13.039145
 H         -15.088220      -43.497864      -12.444102
 H         -17.328421      -42.832218      -12.645900
 H         -17.977261      -44.203835      -11.693955
