20
 generated by VMD
 C         -49.801220     -127.429680      -39.554020
 N         -48.901749     -126.692520      -39.414509
 H         -47.252590     -126.481857      -41.191536
 H         -50.504223     -128.211700      -39.766212
 C         -46.461906     -125.831581      -41.057613
 C         -45.232414     -126.175331      -40.456127
 C         -46.688168     -124.411674      -41.243050
 C         -43.970169     -125.362968      -40.698906
 C         -45.501221     -123.473701      -41.433323
 C         -44.270370     -123.876953      -40.502178
 H         -44.883846     -127.280548      -40.674858
 H         -45.415699     -126.144958      -39.374744
 H         -47.456051     -124.026581      -41.814156
 H         -47.231655     -124.137848      -40.302410
 H         -43.561096     -125.636902      -41.694351
 H         -43.236984     -125.677330      -39.913929
 H         -45.770000     -122.430199      -41.434765
 H         -45.082062     -123.524956      -42.397789
 H         -43.395737     -123.276787      -40.642582
 H         -44.666550     -123.790718      -39.443222
