20
 generated by VMD
 C         -48.210777     -135.375732      -46.139244
 N         -47.443653     -135.039185      -46.939175
 H         -51.408115     -134.533234      -45.400280
 H         -48.675720     -135.523010      -45.174595
 C         -51.318901     -135.594208      -45.005505
 C         -51.993782     -136.842285      -45.429535
 C         -51.311630     -135.432297      -43.487339
 C         -51.356331     -138.068924      -44.788891
 C         -50.714836     -136.689651      -42.790188
 C         -51.360886     -137.959137      -43.221241
 H         -51.850632     -136.837585      -46.531990
 H         -53.037876     -136.786011      -45.221840
 H         -50.683456     -134.546951      -43.217949
 H         -52.311409     -135.211670      -43.184952
 H         -50.397949     -138.364639      -45.210548
 H         -52.096867     -138.878250      -45.104816
 H         -50.658115     -136.644409      -41.666153
 H         -49.663498     -136.861221      -43.100327
 H         -50.745590     -138.771713      -42.750309
 H         -52.486126     -137.866455      -42.803539
