20
 generated by VMD
 C         -29.426403      -89.391190      -25.981619
 N         -29.543818      -88.667854      -25.116590
 H         -31.817074      -90.917450      -27.732321
 H         -29.465729      -89.996742      -26.937366
 C         -32.447174      -90.046082      -27.414171
 C         -33.298340      -90.223640      -26.182276
 C         -32.929844      -89.260574      -28.581299
 C         -34.194000      -88.953224      -25.966558
 C         -33.933449      -88.120018      -28.248228
 C         -34.969196      -88.569633      -27.190258
 H         -32.646202      -90.410736      -25.371199
 H         -34.048229      -90.963699      -26.434855
 H         -32.237331      -88.800995      -29.310774
 H         -33.451008      -90.009384      -29.165819
 H         -33.677826      -88.022011      -25.689571
 H         -34.839798      -89.051048      -25.136568
 H         -34.375526      -87.887589      -29.190294
 H         -33.367550      -87.269508      -27.950207
 H         -35.703403      -87.726685      -27.117542
 H         -35.424217      -89.399155      -27.698889
