20
 generated by VMD
 C         -58.734928     -158.989319      -57.431202
 N         -59.078320     -158.182114      -58.113834
 H         -59.462116     -159.548553      -54.559654
 H         -58.431221     -159.753799      -56.728413
 C         -59.546535     -160.260010      -53.719700
 C         -58.510704     -160.352737      -52.689365
 C         -60.580090     -161.388855      -53.757153
 C         -58.989170     -160.923782      -51.273392
 C         -61.181236     -161.670227      -52.417427
 C         -60.146584     -161.963715      -51.311100
 H         -58.145390     -159.330643      -52.538559
 H         -57.676071     -160.926132      -52.988083
 H         -61.313610     -161.117386      -54.533791
 H         -60.008823     -162.317795      -54.115498
 H         -59.300434     -160.025497      -50.720089
 H         -58.064293     -161.339722      -50.878590
 H         -61.767044     -162.640717      -52.518944
 H         -61.866798     -160.828674      -52.111877
 H         -60.571888     -162.034897      -50.280342
 H         -59.686611     -162.932205      -51.411758
