20
 generated by VMD
 C         -60.223736     -156.472534      -55.822659
 N         -60.839230     -155.430389      -55.891582
 H         -59.783150     -157.845276      -52.974224
 H         -59.642021     -157.405457      -55.812031
 C         -58.787285     -157.902222      -52.650417
 C         -57.855953     -156.753571      -52.563831
 C         -58.295479     -159.122238      -52.024765
 C         -57.379814     -156.569061      -51.156139
 C         -57.635006     -159.033249      -50.647915
 C         -56.664234     -157.900574      -50.588936
 H         -58.486824     -155.982635      -53.109665
 H         -56.981339     -156.895798      -53.216026
 H         -59.182468     -159.842804      -52.032124
 H         -57.548557     -159.580734      -52.676624
 H         -58.224678     -156.121613      -50.521244
 H         -56.531914     -155.815872      -51.055321
 H         -57.084084     -160.015396      -50.359489
 H         -58.452282     -159.069443      -49.884300
 H         -56.300560     -157.704346      -49.582878
 H         -55.700878     -158.068893      -51.124950
