20
 generated by VMD
 C         -69.848267     -197.266815      -65.872925
 N         -69.034760     -196.475571      -65.600418
 H         -71.902237     -194.117355      -64.790489
 H         -70.733505     -197.922089      -66.105095
 C         -72.456520     -193.810486      -65.709282
 C         -72.697189     -192.387650      -66.065140
 C         -72.973534     -194.975571      -66.525391
 C         -73.740097     -192.096115      -67.232803
 C         -74.215775     -194.570496      -67.380997
 C         -73.940598     -193.310089      -68.183273
 H         -71.775925     -191.966156      -66.337440
 H         -73.137039     -191.870132      -65.203575
 H         -72.123741     -195.146942      -67.141083
 H         -73.310783     -195.712387      -65.810516
 H         -73.330269     -191.200760      -67.670532
 H         -74.714325     -191.853104      -66.808228
 H         -75.101189     -194.424850      -66.773048
 H         -74.447372     -195.405838      -68.106781
 H         -72.997795     -193.499161      -68.957481
 H         -74.804832     -193.179306      -68.759369
