20
 generated by VMD
 C         -68.925758     -192.895859      -66.340935
 N         -68.096367     -193.415512      -66.985138
 H         -70.016068     -190.005447      -65.577675
 H         -69.758636     -192.503952      -65.714890
 C         -70.867699     -190.566406      -65.307579
 C         -71.785828     -190.777557      -66.491440
 C         -71.503990     -190.730850      -63.930904
 C         -72.648537     -192.017548      -66.263016
 C         -73.047165     -190.690598      -63.991203
 C         -73.616341     -191.623032      -65.125931
 H         -71.153740     -191.024292      -67.458366
 H         -72.354637     -189.922348      -66.741272
 H         -71.241730     -191.752274      -63.456249
 H         -71.093880     -190.061417      -63.175377
 H         -71.988083     -192.816940      -65.875626
 H         -73.321518     -192.218704      -67.078789
 H         -73.205048     -189.639267      -64.281738
 H         -73.659988     -190.872879      -63.024155
 H         -73.859360     -192.469223      -64.601105
 H         -74.675629     -191.264877      -65.582474
