20
 generated by VMD
 C         -69.143890     -194.798950      -65.409073
 N         -68.548386     -194.148087      -64.650421
 H         -71.328285     -194.062973      -68.066055
 H         -69.630775     -195.502625      -66.071228
 C         -72.071320     -193.651520      -67.435928
 C         -71.551987     -192.536957      -66.509056
 C         -73.363983     -194.319046      -67.100845
 C         -72.713440     -192.302628      -65.454041
 C         -74.483833     -193.220779      -67.087189
 C         -74.104591     -192.081314      -66.152596
 H         -71.350746     -191.581024      -67.022507
 H         -70.681717     -192.939011      -65.775330
 H         -73.536736     -195.055237      -67.861969
 H         -73.246651     -194.800522      -66.021713
 H         -72.480133     -191.329788      -64.881363
 H         -72.784508     -193.153259      -64.737099
 H         -75.428101     -193.704102      -66.778633
 H         -74.642593     -192.720703      -68.071487
 H         -74.027649     -191.152420      -66.588974
 H         -74.906143     -192.024124      -65.368736
