20
 generated by VMD
 C         -64.762497     -175.399918      -55.847870
 N         -64.051689     -175.978485      -56.539745
 H         -65.436554     -174.237152      -58.852524
 H         -65.477829     -174.889816      -55.257103
 C         -64.946198     -173.324585      -59.032856
 C         -65.307892     -172.168839      -58.256744
 C         -64.028610     -173.314789      -60.048679
 C         -64.418602     -170.899689      -58.341591
 C         -63.114826     -172.121109      -60.124447
 C         -63.920689     -170.760483      -59.790932
 H         -65.346413     -172.614868      -57.334114
 H         -66.362427     -172.016373      -58.548939
 H         -63.303329     -174.271606      -59.884594
 H         -64.589844     -173.545639      -61.030140
 H         -63.592194     -170.915268      -57.643192
 H         -65.007469     -170.039413      -58.079357
 H         -62.695518     -172.053024      -61.104683
 H         -62.226875     -172.393661      -59.485058
 H         -63.254616     -169.942383      -59.909397
 H         -64.681328     -170.543564      -60.558392
