20
 generated by VMD
 C         -60.954330     -155.049942      -53.121841
 N         -61.045135     -154.356781      -52.256226
 H         -57.996361     -154.196014      -52.609245
 H         -60.972260     -155.736984      -53.943157
 C         -57.122997     -154.225113      -51.959885
 C         -57.386955     -154.143311      -50.478291
 C         -55.832253     -153.810928      -52.603653
 C         -56.263382     -154.608643      -49.626011
 C         -54.688591     -154.153763      -51.564705
 C         -54.928314     -153.843872      -50.089867
 H         -58.269772     -154.799072      -50.201981
 H         -57.863125     -153.172119      -50.328560
 H         -55.613693     -154.394150      -53.540825
 H         -55.831429     -152.755615      -52.911598
 H         -56.249874     -155.672348      -49.763821
 H         -56.327660     -154.336578      -48.560688
 H         -53.698528     -153.659653      -51.863739
 H         -54.584476     -155.207901      -51.605331
 H         -54.029648     -154.022232      -49.399868
 H         -54.910030     -152.760483      -49.998966
