20
 generated by VMD
 C         -79.184509     -209.202576      -76.861000
 N         -79.014748     -209.922150      -75.960152
 H         -77.877007     -209.638916      -73.555183
 H         -79.373436     -208.406387      -77.653236
 C         -78.113846     -210.397430      -72.759079
 C         -77.079880     -210.909576      -71.680725
 C         -79.209618     -211.391357      -73.107529
 C         -77.989861     -211.519119      -70.365822
 C         -79.964546     -211.966431      -71.760597
 C         -78.983047     -212.589294      -70.762215
 H         -76.518616     -210.076172      -71.153877
 H         -76.301834     -211.595001      -72.086678
 H         -79.952728     -210.878082      -73.607010
 H         -78.690086     -212.093674      -73.788696
 H         -78.480736     -210.717209      -69.751724
 H         -77.218307     -212.061066      -69.795784
 H         -80.787659     -212.613968      -72.024002
 H         -80.460533     -211.147110      -71.252129
 H         -79.438469     -212.935715      -69.789627
 H         -78.502441     -213.465500      -71.218987
