20
 generated by VMD
 C         -11.361938      -34.109241       -8.595853
 N         -10.719033      -34.971909       -8.786953
 H         -11.869075      -37.387871       -7.732197
 H         -12.872616      -37.145752       -6.275691
 C         -12.740239      -37.719837       -7.203013
 C         -12.517300      -39.168411       -6.708851
 C         -14.018615      -37.632969       -8.048391
 C         -13.696162      -39.761292       -5.973787
 C         -15.221271      -38.281971       -7.445179
 C         -14.962504      -39.628544       -6.863668
 H         -11.702642      -39.188316       -6.008683
 H         -12.344262      -39.757816       -7.607158
 H         -14.145308      -36.575947       -8.191221
 H         -13.801625      -38.183578       -9.020954
 H         -13.926147      -39.205750       -5.079427
 H         -13.448703      -40.862793       -5.781391
 H         -15.982381      -38.327217       -8.193164
 H         -15.639145      -37.560806       -6.636536
 H         -15.830279      -40.047386       -6.353795
 H         -14.812686      -40.272049       -7.787047
