20
 generated by VMD
 C         -58.958431     -151.963242      -48.989506
 N         -59.031815     -152.209427      -50.171852
 H         -56.422840     -150.517105      -48.356297
 H         -58.766045     -151.677856      -47.968933
 C         -55.716888     -150.261703      -49.100780
 C         -54.738853     -151.314590      -49.672436
 C         -55.301395     -148.813004      -49.154911
 C         -54.148727     -150.802094      -51.026138
 C         -54.859646     -148.379852      -50.631268
 C         -53.649117     -149.297989      -51.003822
 H         -55.257526     -152.226562      -49.892143
 H         -53.827156     -151.341293      -48.906456
 H         -56.116150     -148.185471      -48.696720
 H         -54.514423     -148.649765      -48.448685
 H         -54.995434     -150.785004      -51.753723
 H         -53.363281     -151.412689      -51.427925
 H         -54.503265     -147.385971      -50.549877
 H         -55.730450     -148.080643      -51.375515
 H         -53.149433     -149.038330      -52.010414
 H         -52.816986     -149.153046      -50.324562
