20
 generated by VMD
 C         -20.430618      -61.764595      -17.521330
 N         -19.554104      -61.372688      -16.893515
 H         -21.760721      -65.245087      -16.789228
 H         -21.410465      -62.225983      -17.934124
 C         -22.807177      -65.016068      -16.956541
 C         -23.034693      -64.277496      -18.323769
 C         -23.946585      -65.298775      -16.058638
 C         -24.370861      -64.704292      -18.913414
 C         -25.307432      -65.618141      -16.665792
 C         -25.536860      -64.656479      -17.816532
 H         -22.114201      -64.365105      -18.972582
 H         -23.065489      -63.101551      -18.036221
 H         -23.802702      -66.183334      -15.444311
 H         -24.033453      -64.514221      -15.222411
 H         -24.236555      -65.720421      -19.389423
 H         -24.689186      -63.913040      -19.629545
 H         -25.989235      -65.375053      -15.865987
 H         -25.366980      -66.648476      -17.047110
 H         -26.485682      -64.892540      -18.237711
 H         -25.470934      -63.619812      -17.321270
