20
 generated by VMD
 C         -47.953812     -125.088959      -38.872730
 N         -47.305191     -126.031197      -38.622059
 H         -45.701553     -123.262672      -37.973507
 H         -48.549076     -124.192902      -39.218266
 C         -45.297874     -123.056221      -38.909779
 C         -44.264355     -124.020676      -39.315376
 C         -45.572941     -121.859749      -39.637508
 C         -44.475506     -124.300735      -40.796867
 C         -45.880733     -122.279884      -41.171833
 C         -44.886864     -123.151711      -41.748714
 H         -44.230762     -124.906319      -38.756542
 H         -43.304161     -123.499916      -39.213768
 H         -46.510971     -121.398689      -39.258125
 H         -44.837769     -121.118431      -39.578793
 H         -45.135963     -125.224564      -40.895557
 H         -43.556610     -124.779892      -41.205742
 H         -46.086811     -121.365860      -41.899807
 H         -46.909492     -122.838394      -41.201542
 H         -45.191242     -123.566162      -42.660774
 H         -44.010605     -122.548599      -41.958126
