20
 generated by VMD
 C          -7.060144      -23.157070        2.658133
 N          -6.086292      -22.652618        2.751788
 H          -6.336193      -21.027708       -0.220887
 H          -7.928013      -21.702471       -0.765575
 C          -7.019698      -21.211004       -1.018650
 C          -6.307049      -22.043911       -2.085778
 C          -7.264305      -19.806854       -1.591210
 C          -7.084819      -22.147505       -3.399038
 C          -8.041906      -19.842493       -2.937593
 C          -7.338268      -20.762794       -4.005940
 H          -6.232002      -23.089222       -1.641820
 H          -5.311471      -21.660444       -2.241673
 H          -7.866074      -19.166059       -0.865291
 H          -6.335827      -19.227316       -1.656512
 H          -7.998738      -22.717600       -3.299907
 H          -6.516382      -22.758881       -4.096673
 H          -8.219505      -18.895082       -3.431170
 H          -9.047514      -20.175549       -2.725400
 H          -7.859266      -20.794107       -4.949573
 H          -6.421169      -20.268520       -4.223732
