20
 generated by VMD
 C         -49.829529     -128.579605      -43.036594
 N         -50.626041     -128.913254      -43.834145
 H         -48.721684     -128.183777      -39.694153
 H         -48.951374     -128.336487      -42.433159
 C         -47.872272     -128.262909      -40.407436
 C         -46.764687     -129.103699      -40.045448
 C         -47.358379     -127.057487      -41.033516
 C         -45.684727     -129.334290      -41.070919
 C         -46.407494     -127.275002      -42.204613
 C         -45.162521     -127.927155      -41.615040
 H         -47.074436     -130.154510      -39.708382
 H         -46.256306     -128.582001      -39.239338
 H         -48.308926     -126.482277      -41.344944
 H         -47.048801     -126.497581      -40.263248
 H         -46.132217     -129.765594      -41.928120
 H         -44.838421     -129.841568      -40.586594
 H         -46.149189     -126.293289      -42.566563
 H         -46.778172     -127.894859      -43.002907
 H         -44.364399     -128.030579      -42.364300
 H         -44.676624     -127.300354      -40.804249
