20
 generated by VMD
 C         -41.233253     -101.406090      -32.600185
 N         -41.877739     -101.554039      -33.578606
 H         -38.539860     -103.418434      -32.604076
 H         -40.674194     -101.626808      -31.753265
 C         -37.712196     -102.863823      -32.112728
 C         -36.526409     -102.862900      -32.953545
 C         -37.496643     -103.078979      -30.508770
 C         -35.327438     -102.238396      -32.328468
 C         -36.218388     -102.477493      -30.029362
 C         -35.087399     -102.761086      -30.954241
 H         -36.946957     -102.349365      -33.841560
 H         -36.351135     -103.898987      -33.200710
 H         -38.331436     -102.718941      -29.950609
 H         -37.559982     -104.236145      -30.520844
 H         -35.512108     -101.191917      -32.294456
 H         -34.443542     -102.407181      -32.938316
 H         -36.065300     -103.037514      -29.066950
 H         -36.052910     -101.489906      -29.793240
 H         -34.201584     -102.219925      -30.712202
 H         -34.931770     -103.818352      -30.987556
