20
 generated by VMD
 C         -40.822823     -103.873688      -37.180309
 N         -40.713375     -104.768929      -36.419769
 H         -39.994541     -105.804604      -33.788185
 H         -41.010479     -103.170235      -37.949181
 C         -39.361801     -106.546371      -33.433353
 C         -38.019966     -106.298492      -32.827724
 C         -39.832481     -108.028168      -33.422852
 C         -37.758575     -106.819572      -31.422705
 C         -39.504395     -108.640121      -31.976631
 C         -38.164673     -108.331718      -31.374140
 H         -38.025272     -105.210472      -32.825237
 H         -37.104912     -106.585342      -33.489384
 H         -40.849636     -107.948097      -33.668777
 H         -39.259811     -108.586868      -34.197128
 H         -38.357391     -106.339600      -30.597155
 H         -36.705029     -106.739365      -31.062134
 H         -39.618317     -109.756363      -32.018364
 H         -40.231373     -108.198204      -31.283033
 H         -38.199451     -108.719147      -30.369925
 H         -37.342030     -108.915199      -31.922350
