20
 generated by VMD
 C         -30.711220      -78.319221      -25.169767
 N         -31.302355      -77.381798      -25.016832
 H         -29.013103      -76.890549      -22.314045
 H         -30.148390      -79.329315      -25.331783
 C         -28.725706      -77.951309      -22.539759
 C         -27.525000      -78.226181      -23.382536
 C         -29.499809      -79.136986      -21.972980
 C         -26.482689      -79.007622      -22.469206
 C         -28.584629      -80.170441      -21.340666
 C         -27.197834      -80.345596      -21.952814
 H         -27.074881      -77.186378      -23.732462
 H         -27.875715      -78.912529      -24.247110
 H         -30.296499      -78.749344      -21.279947
 H         -29.916677      -79.517181      -22.919928
 H         -26.140739      -78.361214      -21.640974
 H         -25.497591      -79.340355      -22.929468
 H         -29.141823      -81.117622      -21.280056
 H         -28.608641      -79.904510      -20.202084
 H         -26.636528      -80.728859      -21.178738
 H         -27.169773      -81.160858      -22.679192
