20
 generated by VMD
 C         -30.342869      -74.765762      -21.094542
 N         -31.197960      -75.464088      -20.661480
 H         -27.300381      -74.888763      -19.385355
 H         -29.502672      -74.244904      -21.337664
 C         -26.836523      -74.650787      -20.336050
 C         -26.589552      -75.866829      -21.299509
 C         -25.979950      -73.403366      -20.416052
 C         -26.045815      -75.399803      -22.714672
 C         -25.488808      -73.094490      -21.904301
 C         -24.921291      -74.358002      -22.444668
 H         -27.475763      -76.461868      -21.371178
 H         -25.916143      -76.608849      -20.962713
 H         -26.566147      -72.648758      -20.042316
 H         -25.103779      -73.542732      -19.860672
 H         -26.924747      -75.034737      -23.304573
 H         -25.568544      -76.249535      -23.250652
 H         -24.707464      -72.362961      -21.657282
 H         -26.321474      -72.782677      -22.531612
 H         -24.399830      -74.010040      -23.317383
 H         -24.160637      -74.865845      -21.848032
