20
 generated by VMD
 C          -2.389725      -16.917845        2.823876
 N          -2.424742      -16.433537        1.818496
 H          -4.326509      -15.898282        0.085066
 H          -4.516130      -17.207867       -1.050030
 C          -5.061797      -16.621260       -0.285047
 C          -6.292220      -15.968676       -0.932819
 C          -5.369690      -17.639496        0.857014
 C          -7.238623      -17.080532       -1.413105
 C          -6.442129      -18.653254        0.364485
 C          -7.693560      -18.021875       -0.230073
 H          -6.059634      -15.349135       -1.802366
 H          -6.801847      -15.366555       -0.146046
 H          -4.528483      -18.299240        1.074524
 H          -5.795338      -17.147406        1.684031
 H          -6.813765      -17.709679       -2.200650
 H          -8.141159      -16.549665       -1.802539
 H          -6.682399      -19.244867        1.213965
 H          -5.977389      -19.323336       -0.383000
 H          -8.318115      -18.785608       -0.740654
 H          -8.341917      -17.546209        0.510457
