20
 generated by VMD
 C         -68.787437     -180.288635      -62.419899
 N         -69.838570     -180.714081      -62.177696
 H         -67.085541     -180.591263      -59.388012
 H         -67.758568     -179.972763      -62.572292
 C         -66.472092     -179.860733      -59.792419
 C         -65.383308     -180.135178      -60.766163
 C         -66.303558     -178.594482      -58.990883
 C         -65.181961     -178.921265      -61.698559
 C         -66.337158     -177.425537      -59.973423
 C         -65.140556     -177.477783      -61.021721
 H         -65.883102     -180.873795      -61.470806
 H         -64.432915     -180.721481      -60.434536
 H         -67.193085     -178.385956      -58.350540
 H         -65.445534     -178.761276      -58.380043
 H         -66.067825     -178.825806      -62.390198
 H         -64.228256     -179.017593      -62.287846
 H         -66.212494     -176.529587      -59.407074
 H         -67.318008     -177.265656      -60.447105
 H         -65.273903     -176.598557      -61.670757
 H         -64.087494     -177.458099      -60.391502
