20
 generated by VMD
 C         -59.476128     -157.892105      -56.331131
 N         -58.924728     -158.719925      -57.038185
 H         -60.500999     -157.811264      -53.304607
 H         -60.005131     -157.182922      -55.699883
 C         -59.953007     -158.631317      -52.806301
 C         -58.576000     -158.387482      -52.426632
 C         -60.394913     -160.006012      -53.130886
 C         -57.903511     -159.535660      -51.602448
 C         -60.004936     -161.147690      -52.088745
 C         -58.381096     -160.974930      -51.953110
 H         -58.430592     -157.439011      -51.905712
 H         -58.050137     -158.445129      -53.374298
 H         -61.488575     -160.086594      -53.211308
 H         -59.949383     -160.259567      -54.171341
 H         -58.149178     -159.470215      -50.474136
 H         -56.857578     -159.373978      -51.707439
 H         -60.473778     -162.112335      -52.466415
 H         -60.253540     -160.985550      -51.051418
 H         -58.018150     -161.615311      -51.150757
 H         -58.077518     -161.291794      -52.868191
