20
 generated by VMD
 C         -57.665451     -164.276657      -56.664276
 N         -57.262943     -163.336655      -57.197197
 H         -59.875809     -165.246536      -54.551804
 H         -57.913586     -165.182022      -56.182613
 C         -60.853077     -164.835037      -54.596935
 C         -61.774597     -165.474258      -53.624275
 C         -61.359570     -164.452271      -55.895184
 C         -63.264782     -164.990585      -53.650326
 C         -62.772671     -163.780548      -55.840771
 C         -63.713455     -164.815292      -55.119915
 H         -61.317276     -165.701782      -52.646046
 H         -61.847824     -166.546005      -53.967003
 H         -60.584873     -163.961441      -56.544109
 H         -61.576897     -165.379196      -56.372856
 H         -63.291344     -164.070404      -53.057320
 H         -63.893486     -165.878510      -53.291798
 H         -63.076588     -163.406586      -56.818569
 H         -62.652138     -162.780792      -55.384289
 H         -64.777756     -164.435745      -55.343185
 H         -63.578751     -165.818375      -55.666199
