20
 generated by VMD
 C         -15.119133      -46.079876       -6.618506
 N         -14.692633      -47.031815       -6.244658
 H         -15.591846      -44.554153       -9.204536
 H         -14.528855      -44.780319      -10.518195
 C         -15.618992      -44.747929      -10.281425
 C         -16.451296      -43.655029      -11.036240
 C         -16.212063      -46.088093      -10.540345
 C         -16.628004      -43.862743      -12.574287
 C         -16.485218      -46.320724      -11.998805
 C         -17.276350      -45.218891      -12.732023
 H         -16.066782      -42.645790      -10.882536
 H         -17.503382      -43.572361      -10.633801
 H         -15.451810      -46.816902      -10.116112
 H         -17.146578      -46.339718       -9.968607
 H         -15.644948      -43.769905      -13.037604
 H         -17.260763      -43.051613      -12.990808
 H         -16.888697      -47.331825      -12.189205
 H         -15.447938      -46.307144      -12.526973
 H         -17.275965      -45.585144      -13.743783
 H         -18.286905      -45.139320      -12.273971
