20
 generated by VMD
 C         -50.074593     -130.776962      -45.561279
 N         -50.801769     -129.903549      -45.841881
 H         -47.369259     -132.392349      -44.293404
 H         -49.629848     -131.807205      -45.499432
 C         -48.135471     -132.299347      -43.514923
 C         -48.559528     -133.547745      -42.827347
 C         -48.387115     -130.940994      -42.776714
 C         -47.937664     -133.484039      -41.461506
 C         -47.875843     -131.088562      -41.357525
 C         -48.348015     -132.278793      -40.630550
 H         -48.309792     -134.552582      -43.388767
 H         -49.617573     -133.461258      -42.903915
 H         -47.934872     -130.042145      -43.183960
 H         -49.558796     -130.709381      -42.732426
 H         -46.817284     -133.492279      -41.521259
 H         -48.235035     -134.429596      -40.883793
 H         -48.085342     -130.048080      -40.956970
 H         -46.839233     -131.170837      -41.564716
 H         -47.926487     -132.424973      -39.670238
 H         -49.479824     -132.245560      -40.392090
