20
 generated by VMD
 C         -21.723726      -52.337318      -11.426937
 N         -21.659849      -52.925060      -10.342612
 H         -19.976227      -51.515675      -13.981224
 H         -21.903183      -51.908791      -12.297618
 C         -18.991922      -51.462341      -13.698489
 C         -17.997244      -51.850578      -14.783336
 C         -18.490086      -51.287277      -12.276297
 C         -16.505903      -51.932129      -14.419072
 C         -16.982216      -51.107655      -12.192627
 C         -16.202589      -52.186394      -12.984152
 H         -18.195887      -51.178020      -15.659274
 H         -18.407885      -52.785664      -15.174437
 H         -18.905397      -50.352318      -11.787246
 H         -18.875277      -52.159359      -11.719433
 H         -16.083834      -50.974178      -14.738820
 H         -15.998954      -52.752293      -14.955303
 H         -16.713417      -51.134434      -11.144469
 H         -16.740992      -50.144337      -12.554139
 H         -15.135757      -52.145988      -12.879986
 H         -16.597300      -53.157711      -12.746274
