20
 generated by VMD
 C         -49.893818     -142.594803      -45.247559
 N         -48.844681     -143.112640      -45.320038
 H         -51.874775     -139.603592      -45.746178
 H         -50.933296     -142.250549      -45.386082
 C         -52.565609     -140.034988      -46.411285
 C         -52.291897     -140.291611      -47.807205
 C         -53.988953     -140.324188      -45.849598
 C         -52.822670     -141.654678      -48.240009
 C         -54.299862     -141.756653      -46.181438
 C         -54.294075     -141.966965      -47.752201
 H         -51.157616     -140.389145      -47.879578
 H         -52.676708     -139.509644      -48.501934
 H         -54.197819     -140.179276      -44.820137
 H         -54.633919     -139.596130      -46.233089
 H         -52.057808     -142.441193      -47.800175
 H         -52.815502     -141.635132      -49.391220
 H         -55.337452     -142.127106      -45.813534
 H         -53.562008     -142.415802      -45.648594
 H         -54.539902     -143.063965      -47.901974
 H         -55.055744     -141.230347      -48.230217
