20
 generated by VMD
 C         -48.160175     -140.364578      -45.689438
 N         -47.046463     -140.099350      -45.589451
 H         -51.193546     -138.574966      -45.428986
 H         -49.100033     -140.843536      -45.757183
 C         -51.974716     -139.268448      -45.773399
 C         -52.279202     -139.391357      -47.265255
 C         -53.155167     -139.360199      -44.797344
 C         -53.270142     -140.518814      -47.631191
 C         -54.108028     -140.485458      -45.066139
 C         -54.482517     -140.545761      -46.663692
 H         -51.447296     -139.578400      -47.862194
 H         -52.745262     -138.415375      -47.499496
 H         -52.729282     -139.632050      -43.805595
 H         -53.549767     -138.329254      -44.900394
 H         -52.728672     -141.498169      -47.435863
 H         -53.665081     -140.564209      -48.719261
 H         -54.987309     -140.408722      -44.421200
 H         -53.693592     -141.461624      -44.642361
 H         -55.088223     -141.444214      -46.929512
 H         -55.146111     -139.723633      -46.857822
