20
 generated by VMD
 C         -19.282959      -63.544857      -16.683130
 N         -20.186913      -62.944298      -17.087679
 H         -22.731617      -64.544762      -17.438524
 H         -18.402113      -63.956413      -16.415363
 C         -23.744081      -64.282234      -17.404514
 C         -24.318659      -64.052780      -18.764948
 C         -24.577246      -65.052139      -16.522152
 C         -24.763157      -65.449417      -19.352432
 C         -24.873508      -66.508003      -17.002224
 C         -25.479780      -66.525002      -18.424347
 H         -23.402538      -63.785690      -19.400448
 H         -25.229990      -63.401108      -18.783054
 H         -24.076040      -64.959534      -15.522989
 H         -25.547056      -64.540077      -16.349638
 H         -23.853809      -65.980247      -19.736214
 H         -25.408085      -65.324356      -20.238150
 H         -25.677883      -66.998734      -16.413296
 H         -23.960625      -67.109444      -16.983557
 H         -25.581341      -67.573540      -18.927786
 H         -26.537378      -66.295296      -18.246094
