20
 generated by VMD
 C         -60.350414     -170.258347      -55.119053
 N         -59.261822     -170.280960      -55.401081
 H         -63.266655     -170.535995      -56.474182
 H         -61.370102     -170.243683      -54.756500
 C         -63.388638     -169.579788      -56.957603
 C         -62.394176     -169.030746      -57.904697
 C         -64.366875     -168.807159      -56.219749
 C         -62.987480     -167.893417      -58.790878
 C         -65.040382     -167.662201      -57.116711
 C         -63.902428     -166.961990      -57.920391
 H         -61.880421     -169.705292      -58.507381
 H         -61.625408     -168.454819      -57.157894
 H         -65.183395     -169.392761      -55.761196
 H         -63.777950     -168.436905      -55.366837
 H         -63.412922     -168.486298      -59.565456
 H         -62.200092     -167.383820      -59.289742
 H         -65.551521     -167.003799      -56.369308
 H         -65.867828     -168.081314      -57.767044
 H         -64.318001     -166.160110      -58.580559
 H         -63.290047     -166.487457      -57.140190
