20
 generated by VMD
 C         -66.998299     -189.664093      -66.511642
 N         -66.217995     -189.499359      -67.395081
 H         -70.358574     -190.599411      -65.691879
 H         -67.639877     -189.625732      -65.623833
 C         -70.841553     -190.077805      -64.817314
 C         -71.915077     -190.827515      -64.178696
 C         -70.458061     -188.873047      -64.197746
 C         -73.212746     -189.911896      -64.089859
 C         -71.591393     -187.912964      -63.759155
 C         -72.802803     -188.770676      -63.123138
 H         -71.652390     -191.232361      -63.180958
 H         -72.109070     -191.686829      -64.774323
 H         -69.781204     -189.090759      -63.309170
 H         -69.922905     -188.344711      -64.948219
 H         -74.058807     -190.498718      -63.696388
 H         -73.311737     -189.448975      -65.082687
 H         -71.916504     -187.406403      -64.664093
 H         -71.389191     -187.158157      -63.033215
 H         -72.577438     -189.309570      -62.105888
 H         -73.568336     -188.076141      -62.888248
