20
 generated by VMD
 C         -40.150249     -100.721970      -31.820438
 N         -40.846012     -100.266838      -31.020569
 H         -37.652229     -103.455757      -32.136040
 H         -39.260311     -101.128777      -32.337227
 C         -36.966282     -102.699455      -31.765047
 C         -35.839756     -102.241829      -32.584572
 C         -36.738953     -102.319847      -30.364540
 C         -35.648529     -100.788239      -32.591068
 C         -36.405956     -100.863396      -30.214357
 C         -35.410816     -100.326111      -31.154524
 H         -35.867004     -102.649467      -33.607216
 H         -34.985683     -102.707870      -32.157124
 H         -37.617260     -102.533783      -29.848248
 H         -35.870010     -102.938133      -29.980885
 H         -36.417946     -100.212318      -32.927078
 H         -34.780792     -100.503548      -33.125408
 H         -36.013645     -100.610878      -29.127171
 H         -37.315910     -100.267967      -30.317291
 H         -35.380684      -99.228096      -31.191265
 H         -34.392040     -100.541710      -30.844477
