20
 generated by VMD
 C         -23.620924      -54.906342      -14.938840
 N         -23.037842      -54.411072      -15.782647
 H         -20.457281      -54.708858      -15.093777
 H         -23.927586      -55.238346      -13.931097
 C         -19.572737      -55.220272      -14.757804
 C         -18.847723      -54.701004      -13.594632
 C         -19.029209      -56.435863      -15.339306
 C         -18.980541      -55.749855      -12.552507
 C         -18.969393      -57.642956      -14.315040
 C         -18.348955      -57.218975      -12.940171
 H         -19.224087      -53.713989      -13.283503
 H         -17.775087      -54.481491      -13.933705
 H         -19.588278      -56.624268      -16.239403
 H         -17.922682      -56.277458      -15.764360
 H         -20.045797      -55.900234      -12.300701
 H         -18.348587      -55.341850      -11.726548
 H         -18.378786      -58.487637      -14.730500
 H         -19.977682      -57.964539      -14.138509
 H         -18.541328      -57.971100      -12.203755
 H         -17.273100      -57.093136      -13.126667
