20
 generated by VMD
 C         -78.810112     -209.501587      -77.280914
 N         -79.024918     -209.455872      -76.167023
 H         -78.117653     -210.121384      -73.462677
 H         -78.621452     -209.567535      -78.284065
 C         -78.340912     -210.886856      -72.689667
 C         -77.363350     -211.218643      -71.710220
 C         -79.504387     -211.749466      -73.026970
 C         -77.961685     -211.766251      -70.402206
 C         -80.143196     -212.172089      -71.767586
 C         -79.040596     -212.763443      -70.834991
 H         -76.692635     -210.308670      -71.426834
 H         -76.602180     -211.949448      -72.117683
 H         -80.234550     -211.319748      -73.658951
 H         -79.135536     -212.643753      -73.560181
 H         -78.321800     -210.900558      -69.783310
 H         -77.137123     -212.177200      -69.777611
 H         -80.916679     -212.980453      -71.852219
 H         -80.537880     -211.299225      -71.287498
 H         -79.591560     -213.096588      -69.925346
 H         -78.512344     -213.609848      -71.280182
