20
 generated by VMD
 C         -78.937408     -208.058044      -76.224091
 N         -78.383537     -207.717392      -75.230797
 H         -79.196716     -210.080429      -73.379700
 H         -79.443649     -208.326355      -77.217033
 C         -78.695930     -210.125763      -72.394196
 C         -77.483986     -209.324432      -72.467163
 C         -78.872490     -211.350464      -71.546539
 C         -77.068108     -209.008148      -71.019112
 C         -78.664146     -210.795624      -70.081436
 C         -77.204979     -210.191528      -69.995682
 H         -77.703949     -208.382446      -72.925720
 H         -76.748360     -209.901245      -73.009720
 H         -79.928055     -211.704102      -71.539589
 H         -78.307114     -212.213043      -71.829269
 H         -77.675903     -208.289230      -70.485825
 H         -76.043152     -208.614929      -71.076851
 H         -78.808380     -211.688889      -69.427208
 H         -79.467514     -210.088013      -69.665962
 H         -76.946793     -210.022003      -68.949188
 H         -76.462151     -210.851639      -70.365646
