20
 generated by VMD
 C         -70.243500     -183.062607      -64.131035
 N         -70.078453     -183.380264      -65.211479
 H         -68.143150     -180.285187      -62.678379
 H         -70.361717     -182.785690      -63.096325
 C         -67.723007     -180.558090      -61.745029
 C         -67.831184     -181.975235      -61.203793
 C         -66.898232     -179.530014      -60.918293
 C         -66.460335     -182.484528      -60.942795
 C         -65.615723     -180.118011      -60.355732
 C         -65.847099     -181.520920      -59.878609
 H         -68.262260     -182.739975      -61.910969
 H         -68.651611     -181.983551      -60.324081
 H         -66.532600     -178.789581      -61.549179
 H         -67.556038     -179.161453      -60.084423
 H         -65.928764     -182.557770      -61.805248
 H         -66.747513     -183.374680      -60.408329
 H         -65.340813     -179.623581      -59.418430
 H         -64.827377     -180.008514      -61.131260
 H         -64.955078     -182.031433      -59.576706
 H         -66.529129     -181.319901      -58.942093
