20
 generated by VMD
 C         -69.457649     -181.305847      -61.206417
 N         -69.455605     -180.189697      -61.570488
 H         -67.501877     -178.690704      -59.669125
 H         -69.424797     -182.350235      -60.802689
 C         -66.378288     -178.544220      -59.799328
 C         -65.584427     -178.848328      -61.128094
 C         -65.521065     -177.762558      -58.832867
 C         -65.109177     -177.559570      -61.736668
 C         -65.216293     -176.447922      -59.486900
 C         -64.439072     -176.673370      -60.773758
 H         -66.239578     -179.405975      -61.802349
 H         -64.790482     -179.501373      -60.706150
 H         -65.966057     -177.450302      -57.939903
 H         -64.554237     -178.282806      -58.525455
 H         -66.013924     -177.101593      -62.166832
 H         -64.599274     -177.767715      -62.662769
 H         -64.559090     -175.743286      -58.901863
 H         -66.157906     -175.862106      -59.541821
 H         -64.202103     -175.667130      -61.110882
 H         -63.354836     -177.185822      -60.486965
