20
 generated by VMD
 C         -78.750122     -208.283981      -76.829750
 N         -78.969231     -208.300568      -75.713768
 H         -79.070694     -209.738922      -73.469292
 H         -78.404808     -208.225235      -77.799934
 C         -78.613625     -210.057800      -72.527679
 C         -77.315636     -209.494476      -72.142242
 C         -79.063164     -211.296143      -71.957336
 C         -77.072319     -209.624420      -70.557945
 C         -79.014549     -211.137558      -70.361710
 C         -77.541145     -210.970016      -69.835533
 H         -77.230385     -208.430786      -72.408386
 H         -76.500893     -210.098190      -72.642799
 H         -80.136162     -211.600632      -72.283394
 H         -78.407684     -212.026718      -72.431175
 H         -77.452118     -208.764267      -69.999466
 H         -75.970558     -209.646362      -70.597549
 H         -79.587502     -211.977936      -70.035492
 H         -79.535706     -210.244873      -70.026649
 H         -77.520660     -210.997345      -68.710396
 H         -76.852463     -211.697296      -70.338127
