20
 generated by VMD
 C         -30.119814      -92.697182      -25.373211
 N         -30.954756      -93.422417      -25.815609
 H         -32.846905      -91.314896      -26.468876
 H         -29.321949      -92.187141      -24.944157
 C         -33.593697      -91.282562      -27.249735
 C         -34.833572      -92.119835      -27.405893
 C         -33.155018      -90.505463      -28.527596
 C         -35.865955      -91.624191      -28.447454
 C         -34.342884      -89.957527      -29.389647
 C         -35.338505      -91.111290      -29.778971
 H         -35.221298      -92.150490      -26.325863
 H         -34.510204      -93.200951      -27.649237
 H         -32.639988      -89.589844      -28.207165
 H         -32.362862      -91.036545      -29.075073
 H         -36.548588      -90.938759      -27.967392
 H         -36.473976      -92.582008      -28.670155
 H         -34.057671      -89.648582      -30.450195
 H         -34.879128      -89.029701      -29.018141
 H         -36.041294      -90.764748      -30.493002
 H         -34.825142      -91.926018      -30.305893
