20
 generated by VMD
 C         -57.063713     -163.283829      -56.573627
 N         -57.187172     -162.374130      -57.330021
 H         -59.950558     -165.386292      -54.904907
 H         -56.847862     -164.090240      -55.866997
 C         -60.865356     -164.874191      -54.691204
 C         -61.316166     -164.845749      -53.282673
 C         -61.532467     -164.382660      -55.926239
 C         -62.589806     -164.055237      -53.195370
 C         -62.952187     -163.812286      -55.697704
 C         -63.528515     -164.103073      -54.340237
 H         -60.535503     -164.501709      -52.603832
 H         -61.567844     -165.843521      -52.940380
 H         -61.005985     -163.648239      -56.452393
 H         -61.627430     -165.222778      -56.598808
 H         -62.202522     -162.975861      -53.212082
 H         -63.115097     -164.238327      -52.262009
 H         -63.557743     -164.367828      -56.425095
 H         -62.734238     -162.759918      -55.831997
 H         -64.373672     -163.413452      -54.235874
 H         -64.075363     -165.070984      -54.360260
