20
 generated by VMD
 C         -30.833483      -92.796364      -26.297062
 N         -30.774582      -92.511673      -25.141077
 H         -32.498253      -90.109505      -26.496704
 H         -31.032152      -93.035309      -27.303204
 C         -33.188335      -90.461975      -27.220501
 C         -34.000053      -91.681450      -27.079294
 C         -33.256622      -89.600197      -28.485390
 C         -35.271435      -91.740334      -27.993620
 C         -34.541275      -89.753784      -29.264685
 C         -35.149231      -91.176628      -29.384794
 H         -34.465717      -92.006805      -26.119390
 H         -33.481388      -92.637917      -27.275492
 H         -33.216991      -88.584305      -28.111366
 H         -32.291351      -89.726036      -29.021048
 H         -36.097816      -91.334747      -27.417238
 H         -35.616722      -92.796562      -28.170353
 H         -34.292980      -89.241379      -30.246532
 H         -35.333435      -89.061134      -28.870581
 H         -36.167999      -91.224884      -29.871681
 H         -34.487366      -91.734955      -30.112997
