20
 generated by VMD
 C          -6.819884      -23.308628        3.119411
 N          -6.806598      -22.656929        2.209190
 H          -7.701386      -22.679739       -0.608323
 H          -8.986712      -22.360781       -1.815429
 C          -7.885380      -22.191494       -1.536053
 C          -7.076418      -22.921885       -2.569479
 C          -7.548225      -20.717602       -1.475135
 C          -7.030343      -22.209318       -3.865642
 C          -7.544192      -20.040735       -2.862404
 C          -6.655854      -20.790899       -3.793209
 H          -7.508735      -23.968065       -2.734958
 H          -6.073164      -22.995575       -2.262955
 H          -8.273488      -20.250605       -0.828745
 H          -6.610748      -20.544765       -0.929656
 H          -8.039660      -22.357504       -4.353899
 H          -6.406635      -22.776485       -4.578335
 H          -7.322695      -18.981283       -2.729085
 H          -8.564253      -20.030132       -3.292478
 H          -6.616920      -20.284733       -4.805138
 H          -5.601724      -20.754906       -3.380750
