20
 generated by VMD
 C         -11.453176      -39.514061       -7.081745
 N         -10.906693      -39.842312       -6.156593
 H         -13.291230      -40.778084       -9.100839
 H         -14.780711      -39.815578       -9.198292
 C         -14.315495      -40.803871       -9.192997
 C         -14.892828      -41.691154       -8.090015
 C         -14.649634      -41.551933      -10.529632
 C         -16.398228      -41.936100       -8.262156
 C         -16.194895      -41.591759      -10.757817
 C         -16.777138      -42.468708       -9.682062
 H         -14.762072      -41.164585       -7.185981
 H         -14.441148      -42.655319       -7.950861
 H         -14.187669      -41.130981      -11.409782
 H         -14.203471      -42.598915      -10.496200
 H         -16.956057      -41.008064       -8.078810
 H         -16.732800      -42.614742       -7.516490
 H         -16.341213      -41.965706      -11.810801
 H         -16.528444      -40.598915      -10.708482
 H         -17.856964      -42.499222       -9.740375
 H         -16.464025      -43.516075       -9.757254
