20
 generated by VMD
 C         -19.916307      -58.994221      -17.291204
 N         -19.295038      -58.871487      -18.267483
 H         -22.739191      -59.622849      -16.370054
 H         -20.409908      -58.933487      -16.358767
 C         -22.755018      -60.704548      -16.147711
 C         -23.481310      -61.536858      -17.161098
 C         -22.658375      -61.325401      -14.776805
 C         -23.165390      -63.098648      -17.110828
 C         -22.399717      -62.791622      -14.681746
 C         -23.225611      -63.670300      -15.723577
 H         -23.347887      -61.188995      -18.205681
 H         -24.495462      -61.366879      -16.844215
 H         -21.829208      -60.901501      -14.182774
 H         -23.694098      -61.194523      -14.381145
 H         -22.212044      -63.335503      -17.579578
 H         -23.838148      -63.641380      -17.753098
 H         -22.872469      -63.020344      -13.703418
 H         -21.275278      -63.015881      -14.731355
 H         -22.902008      -64.697227      -15.620255
 H         -24.283539      -63.758400      -15.278842
