20
 generated by VMD
 C         -12.363489      -27.573339       -4.610526
 N         -13.126532      -28.114105       -5.219134
 H         -10.893205      -30.619740       -2.818818
 H         -11.083365      -29.078175       -3.753077
 C         -10.276160      -29.812677       -3.384176
 C          -9.614058      -30.438761       -4.562998
 C          -9.292518      -29.120747       -2.436625
 C          -8.687375      -29.519831       -5.263282
 C          -8.339693      -28.193243       -3.235334
 C          -7.696565      -28.834089       -4.386956
 H         -10.387132      -30.598703       -5.357134
 H          -9.101691      -31.362867       -4.218172
 H          -9.807172      -28.522276       -1.711149
 H          -8.670314      -29.897802       -1.934018
 H          -9.334575      -28.736097       -5.732111
 H          -8.165533      -30.105480       -6.031974
 H          -7.553114      -27.905617       -2.508628
 H          -8.976816      -27.338377       -3.547107
 H          -7.100141      -28.113708       -4.906126
 H          -6.897784      -29.548996       -4.076011
