20
 generated by VMD
 C         -80.325569     -206.877472      -74.029533
 N         -80.531296     -206.565430      -75.113495
 H         -76.621033     -207.844406      -73.002678
 H         -79.895058     -207.123276      -73.128601
 C         -76.553337     -207.617279      -71.972031
 C         -75.375160     -206.724884      -71.438576
 C         -77.322296     -208.589584      -71.119614
 C         -75.507202     -206.593445      -69.894806
 C         -77.288765     -208.274887      -69.716354
 C         -75.925041     -207.857285      -69.146759
 H         -75.230087     -205.765594      -71.989655
 H         -74.524284     -207.419968      -71.677338
 H         -78.333221     -208.844269      -71.416847
 H         -76.806290     -209.501785      -71.193512
 H         -76.217903     -205.774109      -69.588799
 H         -74.584534     -206.131927      -69.551270
 H         -77.700584     -209.012589      -69.092270
 H         -77.950546     -207.402679      -69.566582
 H         -76.202744     -207.579575      -68.080070
 H         -75.099564     -208.692078      -69.131729
