20
 generated by VMD
 C         -59.484524     -158.207321      -57.147987
 N         -58.473087     -158.559265      -57.664818
 H         -60.309349     -158.200104      -53.269039
 H         -60.378365     -157.911118      -56.589970
 C         -59.992287     -159.145432      -52.906300
 C         -58.602482     -159.134659      -52.459461
 C         -60.696945     -160.388458      -53.185169
 C         -58.337894     -160.127289      -51.400196
 C         -60.345829     -161.483719      -52.197388
 C         -58.889259     -161.530273      -51.713493
 H         -58.387897     -158.187622      -52.019810
 H         -57.805447     -159.252060      -53.215992
 H         -61.735508     -160.073502      -53.068504
 H         -60.541367     -160.710342      -54.247597
 H         -58.710674     -159.570190      -50.472870
 H         -57.214859     -160.318497      -51.467419
 H         -60.497448     -162.498901      -52.500221
 H         -61.009708     -161.262405      -51.367023
 H         -58.854088     -162.259018      -50.789871
 H         -58.257496     -161.879929      -52.609581
