20
 generated by VMD
 C         -13.696082      -42.991127       -6.058193
 N         -12.870822      -43.018906       -6.831451
 H         -14.756318      -44.846619       -8.649141
 H         -14.292246      -43.489975       -9.730648
 C         -15.056138      -44.218266       -9.560019
 C         -16.448347      -43.600094       -9.305827
 C         -15.216674      -45.023609      -10.854148
 C         -16.971388      -42.666840      -10.449262
 C         -15.797768      -44.213985      -12.049306
 C         -17.114172      -43.410038      -11.744099
 H         -16.298143      -42.936874       -8.454384
 H         -17.184446      -44.324718       -9.093000
 H         -14.183496      -45.276104      -11.094384
 H         -15.888655      -45.850281      -10.621347
 H         -16.281406      -41.815964      -10.577233
 H         -17.962049      -42.250355      -10.189041
 H         -15.893785      -44.940838      -12.922049
 H         -15.143063      -43.480785      -12.420069
 H         -17.485498      -42.668175      -12.523262
 H         -17.942598      -44.141113      -11.675096
