20
 generated by VMD
 C         -79.571159     -207.047256      -75.860931
 N         -80.206474     -207.153564      -74.868614
 H         -77.334175     -208.013016      -72.986404
 H         -78.932732     -206.749146      -76.763039
 C         -76.990158     -208.625107      -72.192360
 C         -75.805481     -208.260529      -71.364502
 C         -77.918701     -209.615601      -71.670311
 C         -76.145218     -207.824402      -70.014717
 C         -78.203720     -209.506104      -70.098564
 C         -76.918442     -208.958649      -69.297440
 H         -75.071800     -207.685059      -71.966675
 H         -75.380890     -209.301361      -71.284035
 H         -78.809433     -209.785492      -72.282120
 H         -77.297348     -210.539825      -71.753830
 H         -76.768562     -206.907471      -70.108444
 H         -75.157501     -207.625580      -69.597664
 H         -78.574905     -210.411331      -69.692543
 H         -79.004105     -208.732590      -69.982857
 H         -77.365440     -208.790710      -68.320976
 H         -76.174583     -209.774277      -69.124664
