20
 generated by VMD
 C         -62.502678     -173.976746      -55.234177
 N         -63.687698     -174.147491      -55.192783
 H         -62.419975     -172.394348      -57.936172
 H         -61.409973     -173.928314      -55.313114
 C         -63.109684     -171.618637      -58.287235
 C         -62.968784     -170.277740      -57.588642
 C         -64.148117     -171.970703      -59.426640
 C         -63.768768     -169.153702      -58.241856
 C         -64.677452     -170.717911      -60.139011
 C         -64.927567     -169.650757      -59.112495
 H         -61.927113     -170.090240      -57.539398
 H         -63.262745     -170.526291      -56.530426
 H         -63.531338     -172.645508      -60.214085
 H         -64.874023     -172.631012      -58.894371
 H         -63.113235     -168.530472      -58.852776
 H         -64.073387     -168.448303      -57.543182
 H         -65.548820     -170.982147      -60.786526
 H         -63.880211     -170.300262      -60.877979
 H         -65.236786     -168.805130      -59.760803
 H         -65.747124     -169.869598      -58.490582
