20
 generated by VMD
 C         -21.550360      -65.547409      -17.127728
 N         -20.823065      -65.869202      -16.332073
 H         -23.953949      -63.715549      -17.905920
 H         -22.080349      -64.867508      -17.926985
 C         -24.368784      -64.717072      -18.209759
 C         -24.563604      -65.128807      -19.659935
 C         -25.183475      -65.572159      -17.354500
 C         -24.304752      -66.625618      -19.786604
 C         -24.875303      -67.027840      -17.429985
 C         -25.171215      -67.447456      -18.877934
 H         -23.860439      -64.673943      -20.427353
 H         -25.532684      -64.797150      -19.868771
 H         -25.051786      -65.249100      -16.382248
 H         -26.252859      -65.388641      -17.542788
 H         -23.239973      -66.989861      -19.517002
 H         -24.484015      -66.992699      -20.832310
 H         -25.514973      -67.569321      -16.654818
 H         -23.820913      -67.308235      -17.210987
 H         -24.785919      -68.515121      -19.033897
 H         -26.217104      -67.355690      -19.169910
