20
 generated by VMD
 C         -19.125359      -49.963001       -9.434025
 N         -19.599352      -51.009663       -9.613613
 H         -16.529285      -47.469891      -10.099849
 H         -18.652582      -48.897900       -8.869691
 C         -16.579065      -47.862148      -11.137528
 C         -15.674886      -49.013264      -11.471498
 C         -17.387840      -47.062416      -12.067408
 C         -16.182589      -49.779324      -12.686932
 C         -18.062027      -48.001106      -13.079767
 C         -16.917147      -48.867062      -13.691904
 H         -15.601232      -49.773514      -10.694238
 H         -14.645638      -48.648846      -11.597845
 H         -18.157194      -46.491543      -11.509130
 H         -16.845804      -46.314461      -12.672684
 H         -16.836740      -50.568771      -12.384438
 H         -15.336680      -50.323318      -13.104913
 H         -18.640661      -47.428230      -13.797911
 H         -18.740538      -48.723511      -12.600281
 H         -17.284914      -49.505726      -14.520440
 H         -16.143616      -48.197304      -14.134699
