20
 generated by VMD
 C         -49.945225     -129.008591      -42.934284
 N         -50.675846     -128.557861      -43.752872
 H         -48.542973     -128.053665      -39.661945
 H         -49.151943     -129.350204      -42.262207
 C         -47.684830     -128.117798      -40.373444
 C         -46.673363     -129.075027      -39.998642
 C         -47.371002     -126.836609      -41.111404
 C         -45.490501     -129.250610      -40.995567
 C         -46.344170     -126.957932      -42.155090
 C         -45.208630     -127.921547      -41.640575
 H         -47.280766     -130.026550      -39.867290
 H         -46.171066     -128.783875      -39.082470
 H         -48.410133     -126.489838      -41.530819
 H         -47.177135     -126.046104      -40.439198
 H         -45.813564     -129.941727      -41.729126
 H         -44.613247     -129.508820      -40.393391
 H         -46.063107     -125.909698      -42.299809
 H         -46.765930     -127.342979      -43.120052
 H         -44.451740     -128.058670      -42.394382
 H         -44.712906     -127.259773      -40.959335
