20
 generated by VMD
 C         -40.423649     -117.622635      -34.595749
 N         -39.464375     -117.134804      -34.990707
 H         -41.926903     -116.544281      -36.981068
 H         -41.319302     -118.071907      -34.244831
 C         -42.877739     -116.568680      -37.468082
 C         -42.830353     -116.632645      -38.985603
 C         -44.134804     -116.286201      -36.722641
 C         -44.176968     -117.347847      -39.495785
 C         -45.350594     -116.882912      -37.397659
 C         -45.466652     -116.833885      -38.924561
 H         -41.955341     -117.212166      -39.218967
 H         -42.802940     -115.640816      -39.360008
 H         -44.119350     -116.546509      -35.576736
 H         -44.030182     -115.216850      -36.686993
 H         -43.934555     -118.433044      -39.368885
 H         -44.145508     -117.072495      -40.594746
 H         -46.328915     -116.587051      -37.165321
 H         -45.455189     -117.874062      -37.046337
 H         -46.191723     -117.430656      -39.241299
 H         -45.621750     -115.778702      -39.078094
