20
 generated by VMD
 C         -60.675755     -153.327240      -52.136631
 N         -61.328831     -154.116364      -51.487015
 H         -57.783169     -153.546051      -51.483444
 H         -60.145264     -152.559372      -52.679302
 C         -56.747204     -153.390961      -51.221893
 C         -56.302315     -153.898636      -49.906403
 C         -56.117691     -152.182312      -51.807270
 C         -54.871815     -153.676300      -49.659763
 C         -54.616180     -152.244095      -51.765358
 C         -54.204597     -152.393738      -50.293198
 H         -56.363621     -155.042160      -49.779610
 H         -56.953770     -153.549484      -49.061550
 H         -56.451447     -152.108215      -52.856682
 H         -56.462875     -151.311722      -51.179440
 H         -54.381180     -154.473602      -50.301292
 H         -54.602943     -153.654129      -48.642437
 H         -54.070930     -151.229004      -52.131878
 H         -54.306057     -153.048325      -52.456329
 H         -53.197952     -152.683899      -50.193352
 H         -54.436657     -151.410629      -49.677364
