20
 generated by VMD
 C         -21.259592      -52.072201      -10.018183
 N         -21.434080      -52.997040      -10.716054
 H         -19.696808      -50.407722      -12.268476
 H         -21.015064      -51.478825       -9.053469
 C         -18.679523      -50.364136      -12.750742
 C         -18.201052      -51.670578      -13.348614
 C         -17.617920      -49.425465      -12.268864
 C         -16.856440      -51.582863      -14.074137
 C         -16.304068      -49.482121      -13.040651
 C         -15.704034      -50.826283      -13.434915
 H         -19.000858      -52.020981      -13.975416
 H         -18.150095      -52.463287      -12.562939
 H         -18.080338      -48.436310      -12.299660
 H         -17.357170      -49.726665      -11.245705
 H         -17.111328      -51.112186      -15.067767
 H         -16.535498      -52.623978      -14.212502
 H         -15.642558      -48.838154      -12.530806
 H         -16.501696      -48.987057      -14.033253
 H         -14.811981      -50.759357      -14.125769
 H         -15.319093      -51.376675      -12.491965
