20
 generated by VMD
 C         -10.257201      -36.174465       -7.283123
 N          -9.933689      -36.939926       -8.013684
 H         -13.384374      -38.314114       -7.744138
 H         -14.578430      -38.911488       -6.689113
 C         -14.147349      -39.054199       -7.689918
 C         -13.536097      -40.471367       -7.782898
 C         -15.183561      -38.883095       -8.786174
 C         -14.690146      -41.450127       -7.468276
 C         -16.350283      -39.928009       -8.720742
 C         -15.781279      -41.410648       -8.525950
 H         -12.680192      -40.525738       -7.076518
 H         -13.046311      -40.643845       -8.756166
 H         -15.693195      -37.872288       -8.638821
 H         -14.688058      -38.803566       -9.756582
 H         -15.065660      -41.178627       -6.443480
 H         -14.426938      -42.490139       -7.328874
 H         -17.017036      -39.940502       -9.655474
 H         -16.952536      -39.750862       -7.871480
 H         -16.668390      -42.087143       -8.275155
 H         -15.329331      -41.770027       -9.472777
