20
 generated by VMD
 C         -40.836418     -103.873795      -37.228683
 N         -40.617928     -104.718323      -36.480160
 H         -39.651890     -106.234924      -34.450642
 H         -40.901791     -103.062660      -37.978497
 C         -39.417404     -106.676300      -33.444050
 C         -38.097744     -106.306854      -32.899433
 C         -39.851891     -108.113037      -33.320950
 C         -37.901814     -106.869102      -31.444347
 C         -39.471241     -108.693375      -31.935482
 C         -38.139324     -108.435036      -31.400297
 H         -38.101784     -105.223824      -33.018990
 H         -37.208843     -106.637489      -33.540546
 H         -40.870472     -107.970840      -33.519890
 H         -39.392689     -108.797813      -34.108997
 H         -38.709232     -106.495659      -30.753801
 H         -36.969395     -106.672630      -30.916855
 H         -39.596134     -109.748962      -32.050259
 H         -40.287560     -108.366859      -31.198139
 H         -38.053185     -109.015297      -30.415348
 H         -37.377422     -108.857140      -32.042606
