20
 generated by VMD
 C         -69.785316     -196.563995      -65.385818
 N         -68.657646     -196.598618      -65.434547
 H         -72.073402     -194.067169      -64.956947
 H         -70.874641     -196.803848      -65.374634
 C         -72.289726     -193.860886      -65.974586
 C         -72.309120     -192.461441      -66.526093
 C         -72.927170     -194.825882      -66.942131
 C         -73.798195     -192.068634      -66.723923
 C         -74.321045     -194.394897      -67.347267
 C         -74.333626     -192.984695      -67.809608
 H         -71.938309     -192.436859      -67.536003
 H         -71.894165     -191.847717      -65.741119
 H         -72.286575     -194.865265      -67.810905
 H         -73.048195     -195.733627      -66.349480
 H         -73.930069     -191.031677      -67.120750
 H         -74.279175     -192.171585      -65.742714
 H         -74.978043     -194.501938      -66.499786
 H         -74.673447     -195.128830      -68.124466
 H         -73.738892     -192.832977      -68.841827
 H         -75.330391     -192.645187      -67.919411
