20
 generated by VMD
 C         -23.091421      -55.071491      -16.805443
 N         -23.707060      -55.045509      -15.776375
 H         -19.697479      -55.370472      -15.525018
 H         -22.778728      -54.846195      -17.768206
 C         -19.172705      -55.945873      -14.770494
 C         -19.414734      -55.942001      -13.334699
 C         -18.474072      -57.176270      -15.282135
 C         -20.260466      -57.055470      -12.865361
 C         -18.977116      -58.565182      -14.643486
 C         -19.872274      -58.424232      -13.374870
 H         -19.970787      -55.007874      -13.059982
 H         -18.439997      -55.827579      -12.752868
 H         -18.405029      -57.102959      -16.358967
 H         -17.356262      -57.188683      -15.019960
 H         -21.280001      -56.880917      -13.250045
 H         -20.265678      -57.067841      -11.766625
 H         -18.107548      -59.170956      -14.366844
 H         -19.482523      -59.172565      -15.356548
 H         -20.759834      -59.073067      -13.472153
 H         -19.232738      -58.841839      -12.569630
