20
 generated by VMD
 C         -27.456409      -84.591599      -26.379642
 N         -27.857504      -85.575249      -26.883692
 H         -31.279263      -84.784615      -26.125910
 H         -27.137318      -83.600159      -25.869669
 C         -31.893686      -85.651291      -25.784071
 C         -32.379005      -85.911293      -24.296589
 C         -32.231453      -86.619171      -26.891338
 C         -33.515179      -86.904617      -24.277256
 C         -33.504238      -87.413277      -26.633099
 C         -33.451633      -87.990852      -25.306002
 H         -32.659328      -84.923981      -23.829845
 H         -31.377338      -86.190125      -23.754791
 H         -32.410011      -86.082626      -27.883110
 H         -31.414816      -87.320251      -27.075195
 H         -34.555759      -86.497948      -24.157194
 H         -33.582664      -87.420670      -23.306547
 H         -33.577332      -88.182678      -27.379351
 H         -34.479065      -86.914322      -26.701794
 H         -34.299362      -88.649338      -25.253246
 H         -32.495728      -88.548798      -25.212225
