20
 generated by VMD
 C         -24.797216      -70.581589      -16.610241
 N         -25.115900      -70.871506      -15.513372
 H         -23.900246      -68.481552      -18.619879
 H         -24.690281      -70.281891      -17.612034
 C         -24.442320      -68.702621      -19.501196
 C         -23.798700      -69.303207      -20.707033
 C         -25.833897      -68.180931      -19.705692
 C         -24.818520      -70.330002      -21.414120
 C         -26.744806      -69.172569      -20.358324
 C         -26.235880      -69.671593      -21.686499
 H         -22.946028      -69.842407      -20.353069
 H         -23.683584      -68.627060      -21.532625
 H         -26.292006      -67.792992      -18.835417
 H         -25.717239      -67.347130      -20.274456
 H         -25.084349      -71.169418      -20.731785
 H         -24.515747      -70.858772      -22.284269
 H         -27.661032      -68.641434      -20.490034
 H         -26.842543      -69.936928      -19.616348
 H         -26.943838      -70.442345      -22.051504
 H         -26.082577      -68.821960      -22.348961
