20
 generated by VMD
 C         -49.546139     -131.815552      -46.462555
 N         -50.200901     -132.469284      -47.235279
 H         -47.721073     -133.501099      -44.335758
 H         -48.978065     -131.096649      -45.904198
 C         -48.682560     -133.771317      -43.830078
 C         -49.240868     -135.109634      -44.016281
 C         -49.025879     -132.874008      -42.636837
 C         -49.608150     -135.842682      -42.674118
 C         -49.497353     -133.634567      -41.470974
 C         -50.299786     -134.893631      -41.741562
 H         -48.421074     -135.760849      -44.469379
 H         -50.092770     -135.232208      -44.740273
 H         -48.222446     -132.225708      -42.500847
 H         -49.860653     -132.262177      -42.881008
 H         -48.709209     -136.071945      -42.090515
 H         -50.230793     -136.716629      -42.926075
 H         -50.047394     -133.052383      -40.681110
 H         -48.511799     -133.820557      -41.018089
 H         -50.602665     -135.333984      -40.824539
 H         -51.354176     -134.541397      -42.182163
