20
 generated by VMD
 C         -38.532890     -111.405937      -36.247616
 N         -38.370132     -110.523560      -36.969631
 H         -40.374580     -114.367294      -34.838631
 H         -38.648022     -112.412651      -35.776241
 C         -41.421345     -114.210266      -35.167194
 C         -41.808678     -114.476685      -36.561810
 C         -42.170418     -113.280220      -34.276966
 C         -43.216610     -114.101440      -36.952515
 C         -43.574642     -113.063652      -34.685177
 C         -43.844215     -112.892227      -36.110683
 H         -41.696426     -115.588409      -36.597813
 H         -41.063244     -113.934906      -37.222740
 H         -41.990162     -113.805206      -33.348499
 H         -41.579746     -112.391739      -34.099442
 H         -43.953484     -114.896461      -36.605846
 H         -43.411823     -114.116409      -38.040318
 H         -44.023312     -112.322937      -34.166073
 H         -44.029655     -113.953339      -34.371914
 H         -44.984386     -112.855492      -36.402756
 H         -43.432068     -111.916649      -36.399155
