20
 generated by VMD
 C         -59.956535     -156.813477      -56.244385
 N         -60.958202     -156.333679      -56.343163
 H         -59.702820     -157.687164      -53.400963
 H         -59.001408     -157.179520      -56.017860
 C         -58.850307     -157.992538      -52.698666
 C         -57.694862     -157.047211      -52.466999
 C         -58.768776     -159.388535      -52.492004
 C         -57.304817     -157.256927      -50.908195
 C         -58.414356     -159.544693      -51.057426
 C         -57.164242     -158.726807      -50.582840
 H         -57.984291     -155.997849      -52.448582
 H         -56.926746     -157.169449      -53.213097
 H         -59.721569     -159.885574      -52.734333
 H         -58.043034     -159.705887      -53.169975
 H         -58.082829     -156.796875      -50.433582
 H         -56.354832     -156.807449      -50.764809
 H         -58.294613     -160.634308      -50.830044
 H         -59.355644     -159.098740      -50.534569
 H         -56.927586     -158.925018      -49.565685
 H         -56.317989     -159.095276      -51.161942
