20
 generated by VMD
 C         -78.185532     -204.292786      -69.395638
 N         -79.068222     -203.762573      -70.003403
 H         -76.166199     -202.610062      -67.932808
 H         -77.510475     -204.732101      -68.731415
 C         -75.327049     -202.271118      -68.509972
 C         -75.509644     -200.965073      -69.243958
 C         -74.158928     -203.115646      -69.011055
 C         -74.904900     -200.858871      -70.576477
 C         -73.012962     -202.239548      -69.520828
 C         -73.392372     -201.233902      -70.517471
 H         -75.061806     -200.274994      -68.563515
 H         -76.620064     -200.705368      -69.311058
 H         -73.824036     -203.844360      -68.313477
 H         -74.600006     -203.839325      -69.749115
 H         -75.092438     -199.868256      -70.925697
 H         -75.391205     -201.623154      -71.192719
 H         -72.179314     -202.788681      -69.998810
 H         -72.462646     -201.885193      -68.585472
 H         -72.835045     -200.225677      -70.079384
 H         -72.928116     -201.421204      -71.518318
