20
 generated by VMD
 C         -58.664539     -158.879395      -58.171661
 N         -58.806141     -159.696274      -57.327671
 H         -59.026783     -160.616165      -54.732533
 H         -58.596897     -158.139893      -58.951744
 C         -59.444130     -161.266220      -54.006359
 C         -58.749924     -161.539291      -52.716209
 C         -60.664207     -162.019592      -54.254044
 C         -59.607746     -161.606750      -51.382191
 C         -61.670422     -161.753998      -53.053741
 C         -61.029240     -162.251022      -51.729950
 H         -57.964184     -160.789536      -52.479389
 H         -58.183437     -162.385147      -52.876080
 H         -61.190533     -161.759964      -55.170887
 H         -60.336021     -163.135742      -54.291412
 H         -59.893032     -160.589859      -51.018673
 H         -59.078579     -161.985489      -50.414227
 H         -62.576992     -162.227051      -53.360004
 H         -61.769295     -160.700500      -52.968060
 H         -61.749535     -162.030823      -50.892811
 H         -60.977177     -163.334625      -51.557972
