20
 generated by VMD
 C         -66.447342     -189.678192      -66.719849
 N         -66.394272     -189.146286      -67.777840
 H         -69.704330     -190.031387      -64.992752
 H         -66.362717     -190.162415      -65.768646
 C         -70.532356     -189.752930      -64.311729
 C         -71.672333     -190.608673      -64.067146
 C         -70.515442     -188.399582      -63.673874
 C         -73.082771     -189.913498      -63.858906
 C         -71.781982     -187.573792      -63.780212
 C         -72.899269     -188.520691      -63.152916
 H         -71.399719     -191.284210      -63.238426
 H         -71.802826     -191.389877      -64.822464
 H         -70.208496     -188.550720      -62.657963
 H         -69.695625     -187.878326      -64.255920
 H         -73.791534     -190.564240      -63.403934
 H         -73.423477     -189.625732      -64.881721
 H         -72.165909     -187.437775      -64.830704
 H         -71.536621     -186.679810      -63.239838
 H         -72.634392     -188.709656      -62.061745
 H         -73.892860     -188.087585      -62.991764
