20
 generated by VMD
 C          -9.931974      -24.549023        0.166119
 N         -10.550242      -25.069241       -0.613521
 H          -6.400824      -24.933611       -0.924716
 H          -8.183047      -24.583273       -1.146967
 C          -7.140637      -24.574894       -1.654912
 C          -7.120560      -25.525440       -2.821367
 C          -6.883355      -23.076483       -2.077853
 C          -8.057190      -25.194466       -3.910337
 C          -7.860322      -22.826277       -3.253606
 C          -7.679728      -23.761524       -4.441509
 H          -7.449380      -26.566267       -2.500455
 H          -6.092623      -25.512882       -3.148356
 H          -7.037210      -22.426115       -1.245691
 H          -5.896294      -22.969025       -2.580909
 H          -9.075449      -25.210281       -3.520781
 H          -7.895641      -25.949474       -4.724536
 H          -7.685075      -21.795086       -3.563186
 H          -8.887025      -22.891890       -2.837190
 H          -8.332346      -23.560734       -5.235129
 H          -6.613023      -23.738092       -4.743976
