20
 generated by VMD
 C         -10.599291      -35.718346       -8.663168
 N         -10.516962      -36.714413       -8.135114
 H         -13.412468      -37.159714       -7.305532
 H         -14.358871      -37.973690       -6.071565
 C         -13.980182      -38.093975       -7.070352
 C         -13.078764      -39.379658       -6.957452
 C         -15.054016      -38.170620       -8.209382
 C         -13.875993      -40.651623       -7.133260
 C         -15.887232      -39.445988       -8.019870
 C         -14.918772      -40.647999       -8.229575
 H         -12.424464      -39.477188       -6.039501
 H         -12.370381      -39.270317       -7.832404
 H         -15.706947      -37.261490       -8.158849
 H         -14.529227      -38.129742       -9.150395
 H         -14.394312      -40.880802       -6.173909
 H         -13.229352      -41.481613       -7.202258
 H         -16.745102      -39.530838       -8.759102
 H         -16.269661      -39.506268       -7.050313
 H         -15.504528      -41.597229       -8.184148
 H         -14.442482      -40.634697       -9.198083
