20
 generated by VMD
 C         -39.480797     -107.706032      -37.753159
 N         -39.034119     -106.642174      -37.872673
 H         -39.662888     -108.209381      -34.788837
 H         -39.735016     -108.766609      -37.815792
 C         -40.015156     -109.052895      -34.199181
 C         -39.215698     -110.300545      -33.924599
 C         -41.454674     -109.172707      -34.179760
 C         -39.732765     -111.014282      -32.644524
 C         -41.967484     -109.861015      -32.938229
 C         -41.246861     -111.237549      -32.749447
 H         -38.201927     -110.078728      -33.579712
 H         -39.348553     -110.978325      -34.784683
 H         -41.860237     -108.139290      -34.074371
 H         -41.834061     -109.556389      -35.194378
 H         -39.624611     -110.407204      -31.691616
 H         -39.129761     -111.911621      -32.396435
 H         -43.028713     -110.116531      -32.848972
 H         -41.826572     -109.208870      -32.060738
 H         -41.615150     -111.670456      -31.830938
 H         -41.482845     -111.924995      -33.657749
