20
 generated by VMD
 C         -49.794769     -128.676559      -42.989231
 N         -50.655258     -128.809006      -43.789639
 H         -48.880875     -128.380554      -40.026440
 H         -49.220718     -128.662155      -42.050373
 C         -47.883049     -128.270370      -40.449844
 C         -46.715263     -129.129944      -39.945560
 C         -47.424030     -126.907059      -41.074600
 C         -45.593601     -129.214615      -41.108707
 C         -46.362240     -127.226288      -42.168510
 C         -45.134193     -127.942093      -41.629108
 H         -47.200802     -130.114151      -39.727413
 H         -46.310032     -128.848114      -38.977272
 H         -48.196663     -126.322998      -41.487415
 H         -46.894428     -126.212929      -40.296654
 H         -46.140354     -129.765320      -41.879620
 H         -44.772198     -129.746216      -40.666874
 H         -46.169125     -126.285362      -42.636547
 H         -46.874462     -127.843842      -42.870289
 H         -44.402962     -128.099762      -42.430737
 H         -44.631615     -127.273071      -40.822506
