20
 generated by VMD
 C         -39.975021     -100.875778      -31.590855
 N         -40.685619     -100.129715      -31.098019
 H         -37.180817     -103.707436      -31.857302
 H         -39.466839     -101.709862      -32.198475
 C         -36.825924     -102.670761      -31.632532
 C         -36.071442     -102.084572      -32.705784
 C         -36.758125     -102.133514      -30.155968
 C         -35.791775     -100.474525      -32.630428
 C         -36.221199     -100.649117      -30.096111
 C         -35.214104     -100.098106      -31.165733
 H         -36.462898     -102.384026      -33.685471
 H         -35.105370     -102.508080      -32.670269
 H         -37.680969     -102.182343      -29.626650
 H         -35.985298     -102.723892      -29.615679
 H         -36.839737     -100.030151      -32.744144
 H         -35.171837     -100.092247      -33.460995
 H         -35.684242     -100.537399      -29.148916
 H         -36.991268      -99.905495      -30.023422
 H         -34.953564      -98.991425      -31.026575
 H         -34.224461     -100.590202      -30.987522
