20
 generated by VMD
 C         -69.365845     -180.373795      -59.930958
 N         -68.911865     -181.312668      -60.451748
 H         -67.352570     -177.075043      -59.760132
 H         -69.792290     -179.425354      -59.545330
 C         -66.352615     -177.035553      -59.921680
 C         -65.990211     -176.916885      -61.340744
 C         -65.316071     -176.980057      -58.937134
 C         -64.928459     -175.917603      -61.540108
 C         -64.090523     -176.035782      -59.163868
 C         -63.650307     -176.147629      -60.666981
 H         -66.928406     -176.693695      -61.908932
 H         -65.690819     -177.908249      -61.566547
 H         -65.719971     -176.531326      -57.984898
 H         -64.934578     -177.908157      -58.658440
 H         -65.257179     -174.867950      -61.430027
 H         -64.708420     -175.810577      -62.547382
 H         -63.313564     -176.017456      -58.410934
 H         -64.389633     -174.979813      -59.149357
 H         -62.852798     -175.371353      -60.942951
 H         -63.225468     -177.111862      -60.688526
