20
 generated by VMD
 C         -36.762672      -98.333984      -25.898125
 N         -37.197620      -98.377205      -26.974062
 H         -36.066158      -96.096222      -28.472603
 H         -36.347775      -98.342567      -24.963943
 C         -35.606750      -95.938248      -29.412317
 C         -35.685326      -96.661423      -30.703009
 C         -34.453579      -94.989403      -29.148779
 C         -35.058891      -95.890556      -31.812386
 C         -33.959904      -94.238045      -30.389088
 C         -33.762562      -95.233063      -31.566858
 H         -36.735172      -96.806465      -31.013525
 H         -35.206348      -97.676048      -30.641012
 H         -34.798424      -94.296921      -28.332195
 H         -33.509636      -95.435333      -28.803867
 H         -35.762840      -95.091179      -32.197926
 H         -34.846375      -96.509369      -32.704323
 H         -33.037083      -93.619179      -30.073214
 H         -34.724976      -93.542702      -30.624033
 H         -33.545914      -94.546188      -32.343353
 H         -32.882851      -95.786240      -31.404171
