20
 generated by VMD
 C         -30.240633      -75.936050      -23.134329
 N         -30.871435      -75.695580      -24.072817
 H         -29.412882      -78.358887      -21.545631
 H         -29.371342      -76.377708      -22.464022
 C         -28.364470      -78.069252      -21.652704
 C         -27.625553      -78.130898      -22.980417
 C         -27.672676      -77.691032      -20.441521
 C         -26.668104      -76.942131      -23.130527
 C         -26.896410      -76.428421      -20.705204
 C         -25.991007      -76.502823      -21.877756
 H         -28.300470      -78.235970      -23.783678
 H         -26.955084      -78.975975      -22.923590
 H         -28.296278      -77.514259      -19.634613
 H         -26.961245      -78.459541      -20.219656
 H         -27.401718      -76.206078      -23.460690
 H         -25.934755      -77.032936      -23.932949
 H         -26.189817      -76.201332      -19.914000
 H         -27.549664      -75.468002      -20.820278
 H         -25.487598      -75.591011      -22.083679
 H         -25.348152      -77.386383      -21.520136
