20
 generated by VMD
 C         -68.017632     -185.261993      -67.933624
 N         -67.604523     -185.454666      -66.861618
 H         -69.638847     -186.377975      -64.705292
 H         -68.442535     -184.942810      -68.869911
 C         -69.899040     -186.466919      -63.684448
 C         -70.621857     -185.391907      -62.939793
 C         -69.353012     -187.697311      -62.940437
 C         -70.239845     -185.199432      -61.424267
 C         -68.793739     -187.320923      -61.633366
 C         -69.842659     -186.548950      -60.856815
 H         -71.695656     -185.618515      -62.930374
 H         -70.438850     -184.409073      -63.399887
 H         -70.255226     -188.309204      -62.827133
 H         -68.539139     -188.214142      -63.594303
 H         -70.974083     -184.675369      -60.810150
 H         -69.274742     -184.705643      -61.508228
 H         -67.795944     -186.718643      -61.693897
 H         -68.462029     -188.283356      -61.218071
 H         -70.790413     -187.307175      -60.679619
 H         -69.524727     -186.257629      -59.811661
