20
 generated by VMD
 C         -70.300453     -183.564560      -66.232582
 N         -69.164207     -183.328613      -66.080177
 H         -68.312866     -184.907959      -63.305008
 H         -71.386192     -183.858307      -66.421959
 C         -68.341835     -184.247559      -62.462139
 C         -68.564751     -184.819458      -61.049671
 C         -68.084076     -182.799896      -62.656746
 C         -67.652016     -184.181320      -59.947403
 C         -66.975555     -182.393341      -61.592461
 C         -67.337013     -182.693680      -60.156857
 H         -68.480904     -185.920349      -60.901524
 H         -69.589531     -184.693573      -60.838799
 H         -67.617836     -182.574905      -63.605686
 H         -69.087723     -182.279526      -62.693203
 H         -66.684364     -184.653397      -59.885426
 H         -67.997978     -184.146530      -58.955170
 H         -66.791451     -181.262817      -61.617577
 H         -66.031723     -182.758362      -62.043232
 H         -66.664246     -182.287842      -59.494461
 H         -68.292809     -182.175186      -59.842171
