20
 generated by VMD
 C         -31.721357      -78.699478      -26.400106
 N         -31.088873      -77.998459      -27.072182
 H         -28.856833      -80.428467      -24.981771
 H         -32.173229      -79.647118      -25.916809
 C         -28.945499      -80.879646      -23.992857
 C         -27.578993      -80.836037      -23.258444
 C         -29.971254      -81.897354      -23.611788
 C         -27.757488      -81.113762      -21.819954
 C         -30.021694      -82.182358      -22.157522
 C         -28.713381      -82.330765      -21.471716
 H         -27.301926      -79.781357      -23.300570
 H         -26.717852      -81.438972      -23.723234
 H         -30.935181      -81.623810      -23.964489
 H         -29.849052      -82.896111      -24.064358
 H         -28.060509      -80.148682      -21.318642
 H         -26.820028      -81.377953      -21.326912
 H         -30.501963      -83.070663      -21.953178
 H         -30.541426      -81.320602      -21.702074
 H         -28.820332      -82.308144      -20.364212
 H         -28.310453      -83.256477      -21.889645
