20
 generated by VMD
 C          -1.503008       -9.169136        0.004110
 N          -2.612172       -9.102493        0.211220
 H          -2.616897      -10.498052        2.430251
 H          -2.211361      -11.680649        3.807156
 C          -2.863240      -11.454108        2.892165
 C          -2.672110      -12.691493        2.050748
 C          -4.248641      -11.265710        3.478765
 C          -3.332083      -13.915947        2.658795
 C          -4.784911      -12.572417        4.143094
 C          -4.764235      -13.651252        3.136826
 H          -1.577296      -12.809494        2.028224
 H          -3.072858      -12.493778        1.083484
 H          -4.191693      -10.466086        4.237442
 H          -4.911449      -10.946075        2.729373
 H          -2.738271      -14.242308        3.488712
 H          -3.322778      -14.627850        1.827325
 H          -5.820712      -12.478676        4.533501
 H          -4.129426      -12.817568        4.992071
 H          -5.006298      -14.625202        3.612036
 H          -5.411423      -13.466654        2.239529
