20
 generated by VMD
 C         -77.510345     -202.938324      -69.230560
 N         -77.565453     -203.753983      -68.404366
 H         -74.663116     -201.376038      -66.923904
 H         -77.322311     -201.971252      -69.765190
 C         -74.593307     -201.147247      -68.020691
 C         -75.255142     -199.955475      -68.613686
 C         -73.740952     -202.095474      -68.859245
 C         -74.470337     -199.324020      -69.729637
 C         -73.205650     -201.439331      -70.160873
 C         -74.184319     -200.372604      -70.741783
 H         -75.332634     -199.128021      -67.846870
 H         -76.265472     -200.165634      -68.941994
 H         -72.976913     -202.503021      -68.250580
 H         -74.335556     -202.998459      -69.082672
 H         -73.666153     -198.762650      -69.373825
 H         -75.068878     -198.514130      -70.108437
 H         -72.916763     -202.158813      -70.979935
 H         -72.298378     -200.908203      -69.879272
 H         -73.759415     -200.030151      -71.739334
 H         -75.043915     -201.014359      -71.022469
