20
 generated by VMD
 C         -49.202168     -126.942894      -39.861103
 N         -50.130657     -127.215599      -39.211384
 H         -46.952183     -127.046341      -42.479954
 H         -48.353207     -126.754082      -40.505222
 C         -46.202908     -126.395546      -41.919380
 C         -45.293945     -126.917610      -40.796482
 C         -46.714432     -124.971115      -41.826477
 C         -44.188385     -125.823242      -40.423538
 C         -45.574780     -124.037369      -41.429192
 C         -44.852947     -124.429276      -40.210636
 H         -44.781410     -127.806641      -41.094032
 H         -45.981762     -127.122543      -39.853024
 H         -47.105797     -124.623047      -42.797588
 H         -47.422295     -124.933479      -41.063862
 H         -43.388126     -125.757515      -41.118366
 H         -43.825596     -126.022774      -39.435352
 H         -45.879025     -123.017868      -41.234356
 H         -44.827820     -123.856804      -42.298862
 H         -43.995213     -123.750893      -39.990204
 H         -45.407211     -124.481247      -39.235645
