20
 generated by VMD
 C         -49.610374     -127.738426      -39.005062
 N         -49.843315     -126.739128      -38.477890
 H         -46.989254     -125.791443      -40.867321
 H         -49.654865     -128.753815      -39.408916
 C         -46.135769     -125.024895      -40.988754
 C         -44.822414     -125.518707      -40.251587
 C         -46.365993     -123.570480      -40.830132
 C         -43.676579     -124.820694      -40.925972
 C         -45.145248     -122.881294      -41.492756
 C         -43.840855     -123.300735      -40.929382
 H         -44.818192     -126.632820      -40.273407
 H         -44.895336     -125.171417      -39.256805
 H         -47.397568     -123.455597      -41.200905
 H         -46.456741     -123.290489      -39.759441
 H         -43.716011     -125.031349      -41.977024
 H         -42.698891     -125.103111      -40.609367
 H         -45.195023     -121.706093      -41.526253
 H         -45.320805     -123.184502      -42.562832
 H         -43.099072     -122.841347      -41.533176
 H         -43.842136     -122.834137      -39.890781
