20
 generated by VMD
 C         -59.449551     -158.218475      -57.197021
 N         -58.497047     -158.544785      -57.670303
 H         -60.450119     -158.193329      -53.363350
 H         -60.355110     -157.957672      -56.718639
 C         -59.996723     -159.110153      -52.892979
 C         -58.560677     -159.122650      -52.472565
 C         -60.680714     -160.421661      -53.175304
 C         -58.354378     -160.168137      -51.404598
 C         -60.341915     -161.510712      -52.177776
 C         -58.950855     -161.532486      -51.697117
 H         -58.395798     -158.113068      -51.990238
 H         -57.893818     -159.422577      -53.281036
 H         -61.720966     -160.086395      -53.125507
 H         -60.531403     -160.756165      -54.174896
 H         -58.671520     -159.712280      -50.452675
 H         -57.306828     -160.251343      -51.348835
 H         -60.531284     -162.494446      -52.716419
 H         -61.018124     -161.459534      -51.310638
 H         -58.737572     -162.243500      -50.922832
 H         -58.342823     -161.930832      -52.462708
