20
 generated by VMD
 C         -40.074013     -104.774361      -36.004345
 N         -39.486713     -104.582756      -36.983295
 H         -40.406326     -107.873116      -35.175358
 H         -40.762508     -105.091385      -35.207172
 C         -39.853291     -108.163368      -34.275822
 C         -38.884262     -107.144470      -33.739517
 C         -40.178829     -109.405289      -33.544605
 C         -38.971378     -107.027603      -32.171135
 C         -39.929695     -109.303154      -31.920387
 C         -38.781628     -108.482483      -31.558964
 H         -39.185398     -106.253891      -34.253368
 H         -37.902245     -107.544601      -33.860195
 H         -41.209995     -109.680702      -33.734577
 H         -39.535454     -110.194756      -33.954414
 H         -39.909798     -106.542786      -31.920753
 H         -38.257710     -106.341202      -31.800152
 H         -39.810287     -110.322937      -31.713984
 H         -40.848820     -108.987801      -31.374800
 H         -38.690948     -108.406990      -30.449215
 H         -37.838310     -108.956604      -31.922688
