20
 generated by VMD
 C         -10.755657      -33.299030       -8.616426
 N         -11.509109      -33.462158       -9.431289
 H         -12.772632      -33.664799       -5.983270
 H         -12.937683      -34.645088       -4.580985
 C         -12.778871      -34.707508       -5.641097
 C         -11.496194      -35.379013       -5.932185
 C         -13.912276      -35.516869       -6.266789
 C         -11.458374      -36.836216       -5.473650
 C         -14.023215      -36.961102       -5.747876
 C         -12.666540      -37.654770       -5.975618
 H         -10.662281      -34.818302       -5.563959
 H         -11.316064      -35.461643       -6.979006
 H         -14.897252      -35.091526       -6.153948
 H         -13.844390      -35.612110       -7.386061
 H         -11.414080      -36.844791       -4.415095
 H         -10.506817      -37.253273       -5.840416
 H         -14.847359      -37.473465       -6.280168
 H         -14.262164      -36.984283       -4.710020
 H         -12.717785      -38.572659       -5.360453
 H         -12.574601      -38.008022       -7.017963
