20
 generated by VMD
 C         -11.311778      -34.015930       -8.241328
 N         -10.794095      -34.021900       -9.241525
 H         -11.667096      -37.683937       -7.871290
 H         -12.640185      -37.138142       -6.474455
 C         -12.556427      -37.920124       -7.270979
 C         -12.450050      -39.303265       -6.601427
 C         -13.807234      -37.755367       -8.141503
 C         -13.733294      -39.639652       -5.803689
 C         -15.043817      -37.973316       -7.227751
 C         -15.027852      -39.331112       -6.589666
 H         -11.574259      -39.277153       -5.952836
 H         -12.130216      -40.059422       -7.316806
 H         -13.875676      -36.789413       -8.608070
 H         -13.945001      -38.486538       -8.985530
 H         -13.787274      -39.058773       -4.846145
 H         -13.703520      -40.676735       -5.464400
 H         -15.995704      -37.887344       -7.762332
 H         -15.032173      -37.206554       -6.382434
 H         -15.873930      -39.453308       -5.869806
 H         -15.203660      -40.065651       -7.385881
