20
 generated by VMD
 C         -47.998005     -125.079651      -38.807484
 N         -47.227402     -125.909790      -38.659256
 H         -45.497032     -123.090347      -37.748089
 H         -48.767849     -124.278961      -38.919216
 C         -45.201660     -122.944855      -38.806438
 C         -44.166199     -123.964935      -39.322086
 C         -45.678940     -121.831528      -39.680847
 C         -44.415558     -124.320312      -40.880783
 C         -46.001598     -122.243500      -41.072926
 C         -44.796352     -123.139732      -41.713692
 H         -44.391308     -124.853935      -38.784184
 H         -43.055172     -123.786751      -39.214375
 H         -46.559292     -121.326668      -39.120613
 H         -44.927761     -121.050735      -39.856560
 H         -45.130367     -125.152039      -40.995377
 H         -43.636898     -124.934135      -41.414890
 H         -46.216591     -121.476883      -41.832626
 H         -46.990700     -122.682785      -41.078957
 H         -45.236729     -123.524414      -42.648472
 H         -43.901501     -122.585327      -42.026489
