20
 generated by VMD
 C         -61.606155     -154.575363      -53.939316
 N         -62.114414     -155.513214      -53.399975
 H         -58.079914     -154.633667      -52.334755
 H         -61.163929     -153.723755      -54.510399
 C         -57.168606     -154.622726      -51.757938
 C         -57.242592     -154.376968      -50.276142
 C         -55.910473     -154.608231      -52.525429
 C         -55.980606     -154.739319      -49.408630
 C         -54.739323     -154.962555      -51.603939
 C         -54.773190     -154.227890      -50.148178
 H         -58.068794     -154.758270      -49.789742
 H         -57.493713     -153.295258      -50.224926
 H         -55.892502     -155.250748      -53.419884
 H         -55.963795     -153.548203      -52.882030
 H         -55.919674     -155.843857      -49.056213
 H         -56.155396     -154.318893      -48.437244
 H         -53.799393     -154.893616      -52.088219
 H         -54.778473     -156.085907      -51.459087
 H         -53.980976     -154.564392      -49.567482
 H         -54.858105     -153.081024      -50.058220
