20
 generated by VMD
 C         -13.750748      -45.431946       -5.648005
 N         -14.338566      -45.151730       -6.552863
 H         -15.042455      -44.215824       -9.166061
 H         -14.374409      -44.042965      -10.694666
 C         -15.308487      -44.304604      -10.197218
 C         -16.440722      -43.265148      -10.533346
 C         -15.707071      -45.695957      -10.550941
 C         -17.061064      -43.342506      -11.922929
 C         -16.214466      -45.608055      -12.013463
 C         -17.405107      -44.682419      -12.384319
 H         -16.021446      -42.280323      -10.356272
 H         -17.301981      -43.326164       -9.880389
 H         -14.872532      -46.404350      -10.445788
 H         -16.455059      -46.130043       -9.944133
 H         -16.289276      -42.921185      -12.593391
 H         -17.905039      -42.651463      -11.938643
 H         -16.532274      -46.592682      -12.284833
 H         -15.371097      -45.303883      -12.616464
 H         -17.565306      -44.740887      -13.473969
 H         -18.316431      -45.032764      -11.950634
