20
 generated by VMD
 C         -18.060862      -48.556705       -7.348751
 N         -18.138149      -48.494606       -6.246947
 H         -16.368565      -48.307014      -10.229455
 H         -16.106789      -49.080093      -11.690571
 C         -16.354633      -48.134369      -11.280549
 C         -15.320157      -47.101875      -11.691603
 C         -17.733047      -47.716110      -11.789383
 C         -15.326046      -46.529713      -13.138086
 C         -17.604881      -47.435387      -13.325787
 C         -16.726236      -46.202560      -13.661814
 H         -14.288098      -47.480633      -11.382506
 H         -15.321701      -46.176155      -11.044837
 H         -18.442179      -48.543369      -11.566096
 H         -18.106384      -46.781048      -11.269874
 H         -14.994299      -47.384869      -13.750571
 H         -14.628860      -45.700291      -13.253609
 H         -18.674877      -47.269764      -13.618284
 H         -17.225229      -48.285797      -13.855626
 H         -16.686502      -46.113869      -14.709236
 H         -17.098001      -45.335781      -13.157758
