20
 generated by VMD
 C         -49.627331     -133.139908      -46.768883
 N         -48.662479     -132.684906      -47.264523
 H         -47.950363     -134.579163      -43.998558
 H         -50.486286     -133.304993      -46.176235
 C         -49.044334     -134.792114      -43.870644
 C         -49.482510     -136.163635      -44.280071
 C         -50.064884     -133.945145      -43.327663
 C         -50.117931     -136.916809      -43.062229
 C         -50.776379     -134.657516      -42.070068
 C         -51.207371     -136.057541      -42.395073
 H         -48.553444     -136.696335      -44.506557
 H         -50.100967     -136.169693      -45.161232
 H         -49.695095     -132.969360      -42.997734
 H         -50.816147     -133.716278      -44.156162
 H         -49.296787     -137.183319      -42.371384
 H         -50.468498     -137.809372      -43.487404
 H         -51.701157     -134.041122      -41.820896
 H         -50.127361     -134.751450      -41.165649
 H         -51.540730     -136.665649      -41.612793
 H         -52.135956     -136.152435      -43.007504
