20
 generated by VMD
 C         -18.534916      -49.987953       -9.664957
 N         -19.474297      -50.646408       -9.497560
 H         -16.286701      -47.168793      -10.108561
 H         -17.711531      -48.967457       -9.921178
 C         -16.697227      -47.836681      -10.894199
 C         -15.721929      -48.807335      -11.488545
 C         -17.569857      -47.079361      -11.870229
 C         -16.384844      -49.686459      -12.513733
 C         -17.951500      -47.909378      -13.161430
 C         -16.891123      -48.850689      -13.680209
 H         -15.095099      -49.456879      -10.817054
 H         -14.954633      -48.198673      -11.976547
 H         -18.434727      -46.657776      -11.397961
 H         -17.042711      -46.230385      -12.265914
 H         -17.296329      -50.190453      -12.068961
 H         -15.771584      -50.573063      -12.731324
 H         -18.240450      -47.205231      -13.996105
 H         -18.838169      -48.468197      -13.047920
 H         -17.434685      -49.513573      -14.434764
 H         -15.980877      -48.354530      -14.180112
