20
 generated by VMD
 C         -27.457239      -86.589111      -26.419767
 N         -28.480057      -86.237099      -26.839888
 H         -31.014929      -86.149094      -25.380968
 H         -26.414959      -87.022041      -26.173670
 C         -31.978323      -86.637527      -25.582869
 C         -32.756638      -87.329880      -24.506863
 C         -32.031105      -87.304893      -26.937929
 C         -34.289932      -87.412292      -24.986494
 C         -33.511024      -87.510323      -27.337616
 C         -34.325848      -88.246887      -26.262793
 H         -32.847900      -86.915405      -23.507273
 H         -32.304642      -88.363510      -24.399078
 H         -31.475754      -86.767372      -27.756483
 H         -31.627266      -88.290970      -26.803524
 H         -34.630318      -86.382271      -25.039410
 H         -34.898891      -87.696289      -24.175934
 H         -33.643906      -88.080177      -28.273355
 H         -33.993641      -86.503822      -27.581377
 H         -35.377792      -88.299576      -26.619642
 H         -33.819328      -89.278320      -26.320471
