20
 generated by VMD
 C         -50.723457     -129.147110      -44.545929
 N         -50.940304     -130.219528      -44.313251
 H         -49.227188     -128.182114      -41.156994
 H         -50.555923     -128.134232      -44.784695
 C         -48.144146     -128.498474      -41.294495
 C         -47.853542     -129.905609      -41.010941
 C         -47.110966     -127.570908      -40.798134
 C         -46.384533     -130.339371      -41.409500
 C         -45.760090     -127.937088      -41.376110
 C         -45.269691     -129.353806      -41.058720
 H         -48.438663     -130.615433      -41.738705
 H         -48.018429     -130.214020      -40.015205
 H         -47.339497     -126.602257      -41.014339
 H         -46.967896     -127.677391      -39.661232
 H         -46.337875     -130.336975      -42.526363
 H         -46.325764     -131.252411      -40.819901
 H         -45.027870     -127.295570      -40.947830
 H         -45.639252     -127.955490      -42.379490
 H         -44.323975     -129.609528      -41.540947
 H         -44.999584     -129.400253      -39.961712
