20
 generated by VMD
 C         -33.169495      -96.751495      -25.344143
 N         -32.698814      -96.517578      -24.311876
 H         -34.514282      -93.714966      -27.505619
 H         -33.517826      -97.103226      -26.229006
 C         -34.690002      -93.388832      -28.559446
 C         -36.089584      -93.464226      -29.057123
 C         -33.464813      -93.151505      -29.310421
 C         -36.321354      -92.749817      -30.425129
 C         -33.720833      -92.287666      -30.517864
 C         -35.034286      -92.805603      -31.297939
 H         -36.828316      -93.108467      -28.330685
 H         -36.276276      -94.548141      -29.217386
 H         -32.878696      -92.646362      -28.563860
 H         -32.918217      -94.083313      -29.566231
 H         -36.588223      -91.687927      -30.170092
 H         -37.139996      -93.287544      -30.823923
 H         -32.867523      -92.338875      -31.165678
 H         -33.833164      -91.207115      -30.341080
 H         -35.360085      -91.982903      -32.072857
 H         -35.027267      -93.852127      -31.732422
