20
 generated by VMD
 C         -68.246536     -194.343826      -66.361847
 N         -67.721184     -194.223679      -65.325699
 H         -70.354729     -190.964233      -66.601845
 H         -68.878540     -194.556473      -67.261864
 C         -71.386208     -191.256653      -66.309052
 C         -72.426147     -190.170517      -66.536331
 C         -71.528793     -192.099503      -65.153206
 C         -73.915215     -190.746658      -66.396965
 C         -72.868217     -192.104706      -64.439323
 C         -73.993484     -191.963043      -65.459770
 H         -72.187096     -189.823105      -67.498154
 H         -72.164932     -189.320374      -65.760033
 H         -71.360100     -193.170868      -65.376396
 H         -70.676140     -191.855804      -64.413559
 H         -74.232208     -191.123047      -67.422066
 H         -74.790443     -190.120117      -66.071259
 H         -72.913406     -191.207748      -63.721291
 H         -73.062057     -192.940002      -63.767075
 H         -74.029449     -192.899628      -66.067116
 H         -74.969543     -192.014114      -64.993416
