20
 generated by VMD
 C         -40.483128     -118.804321      -35.527889
 N         -39.575378     -118.343094      -35.004128
 H         -43.376995     -116.647018      -36.097881
 H         -41.394966     -119.289299      -36.010391
 C         -43.932514     -116.941093      -36.946091
 C         -43.042015     -117.417610      -38.044323
 C         -45.174290     -116.329086      -37.460884
 C         -43.719193     -118.186203      -39.172047
 C         -45.869396     -117.077164      -38.563557
 C         -44.990456     -117.550713      -39.750351
 H         -42.121376     -117.935066      -37.709339
 H         -42.516308     -116.646637      -38.629265
 H         -45.843281     -116.009933      -36.638077
 H         -44.675682     -115.382156      -37.836819
 H         -44.050491     -119.179161      -38.815422
 H         -43.051350     -118.420868      -40.016022
 H         -46.650589     -116.401482      -38.967522
 H         -46.216808     -118.004257      -38.053085
 H         -45.654564     -118.264130      -40.326328
 H         -44.902996     -116.703796      -40.314098
