20
 generated by VMD
 C         -22.507057      -55.584759      -16.389381
 N         -23.145060      -54.554768      -16.352100
 H         -19.625896      -55.601353      -15.522090
 H         -21.769102      -56.367748      -16.650764
 C         -19.835745      -56.564598      -15.068503
 C         -20.490660      -56.668533      -13.735345
 C         -18.675705      -57.499535      -15.149076
 C         -20.990179      -58.078506      -13.480331
 C         -18.964079      -58.910236      -14.672502
 C         -19.720343      -58.921555      -13.359789
 H         -21.473946      -56.105186      -13.773911
 H         -19.804996      -56.265362      -12.924103
 H         -18.511135      -57.469913      -16.295071
 H         -17.919558      -57.024654      -14.539718
 H         -21.665905      -58.309917      -14.349006
 H         -21.574306      -58.159210      -12.575944
 H         -18.067966      -59.568615      -14.621563
 H         -19.576151      -59.404663      -15.388330
 H         -19.969942      -59.984035      -13.172722
 H         -19.132605      -58.545582      -12.556621
