20
 generated by VMD
 C         -30.007757      -89.447479      -25.530947
 N         -29.175724      -89.987869      -26.083225
 H         -32.021759      -91.439407      -27.348871
 H         -30.841879      -89.073654      -25.019096
 C         -32.827427      -90.718597      -27.227766
 C         -34.369038      -91.192825      -27.202663
 C         -32.523998      -89.565750      -28.135244
 C         -35.174713      -90.002579      -26.766834
 C         -33.505173      -88.384842      -27.868328
 C         -34.998371      -88.802132      -27.731813
 H         -34.369423      -92.021751      -26.504433
 H         -34.596886      -91.513809      -28.269033
 H         -31.494278      -89.147652      -28.104961
 H         -32.689003      -89.770393      -29.180012
 H         -34.992096      -89.844749      -25.652035
 H         -36.175758      -90.412827      -26.813988
 H         -33.422771      -87.686996      -28.727312
 H         -33.150085      -87.839973      -26.910042
 H         -35.542473      -87.991768      -27.188444
 H         -35.451523      -88.911636      -28.738035
