20
 generated by VMD
 C         -31.109623      -77.466782      -25.134602
 N         -32.043610      -77.063095      -25.650526
 H         -29.122128      -76.863846      -22.391115
 H         -30.007629      -77.779572      -25.014549
 C         -28.634024      -77.835472      -22.366543
 C         -27.440594      -77.982094      -23.256781
 C         -28.978394      -78.792557      -21.227301
 C         -26.274164      -78.697464      -22.530962
 C         -27.781107      -79.764587      -20.741846
 C         -26.760714      -79.965569      -21.836943
 H         -27.100550      -76.945328      -23.460508
 H         -27.792345      -78.690109      -24.025009
 H         -29.338928      -78.315575      -20.372013
 H         -29.701683      -79.515656      -21.670918
 H         -25.741735      -77.945236      -21.916864
 H         -25.439505      -79.035271      -23.158466
 H         -28.123121      -80.684776      -20.277546
 H         -27.335770      -79.282303      -19.895145
 H         -25.903093      -80.425392      -21.350060
 H         -26.966684      -80.808601      -22.580093
