20
 generated by VMD
 C         -29.601942      -79.919197      -26.434490
 N         -29.666412      -80.124023      -27.577692
 H         -28.440968      -82.675896      -24.861986
 H         -29.556564      -79.766624      -25.411646
 C         -29.207376      -83.023300      -24.257740
 C         -29.186893      -82.638298      -22.872326
 C         -30.006016      -84.068230      -24.919960
 C         -30.694532      -82.649742      -22.337452
 C         -31.409657      -84.242470      -24.271049
 C         -31.360510      -84.012337      -22.598223
 H         -28.820202      -81.616394      -22.740179
 H         -28.640722      -83.452789      -22.333624
 H         -30.139622      -83.803795      -26.038788
 H         -29.342884      -84.923981      -24.813309
 H         -31.331280      -81.902771      -22.835094
 H         -30.543699      -82.537216      -21.251783
 H         -31.860315      -85.258453      -24.560335
 H         -31.989813      -83.431648      -24.675570
 H         -32.459576      -83.961647      -22.307871
 H         -30.940813      -84.979385      -22.185425
