20
 generated by VMD
 C         -70.167465     -181.207382      -63.419842
 N         -71.148743     -181.777359      -63.295727
 H         -67.821075     -181.517059      -61.182991
 H         -69.226997     -180.725662      -63.632004
 C         -66.976860     -180.855377      -60.829857
 C         -65.734840     -181.452240      -60.446194
 C         -67.380981     -179.392166      -60.635319
 C         -64.579201     -180.505600      -60.724129
 C         -66.160904     -178.456635      -60.815674
 C         -64.879471     -179.052490      -60.306938
 H         -65.472778     -182.441574      -60.785358
 H         -65.823845     -181.788132      -59.411491
 H         -68.285919     -179.242722      -61.286667
 H         -67.792686     -179.387726      -59.519657
 H         -64.236916     -180.407562      -61.851418
 H         -63.661591     -180.825897      -60.059544
 H         -66.319862     -177.469070      -60.351562
 H         -66.138657     -178.175766      -61.852566
 H         -63.990913     -178.515152      -60.634163
 H         -65.010719     -179.025436      -59.170612
