20
 generated by VMD
 C         -22.630569      -52.526638      -12.002420
 N         -23.768064      -52.393875      -11.737596
 H         -19.799713      -53.882011      -14.354160
 H         -21.692518      -52.528332      -11.971910
 C         -18.880138      -53.576542      -14.031258
 C         -18.385149      -52.277203      -14.469848
 C         -18.028761      -54.617035      -13.393939
 C         -16.881704      -52.066406      -14.330348
 C         -17.276361      -53.816784      -12.430750
 C         -16.268246      -52.861492      -13.208975
 H         -18.861040      -51.422073      -13.975598
 H         -18.720634      -52.150440      -15.475863
 H         -18.689363      -55.348213      -12.989349
 H         -17.328583      -55.105530      -14.114478
 H         -16.515335      -51.025837      -14.271331
 H         -16.411819      -52.484100      -15.262308
 H         -16.655119      -54.548260      -11.835567
 H         -17.889315      -53.222603      -11.763968
 H         -15.690223      -52.246643      -12.549238
 H         -15.475696      -53.437344      -13.638891
