20
 generated by VMD
 C         -58.395298     -160.181381      -56.960522
 N         -58.644512     -159.845917      -58.102028
 H         -58.805134     -162.816666      -54.906143
 H         -58.244904     -160.461380      -55.901108
 C         -59.614906     -163.159973      -54.222984
 C         -59.411667     -163.164307      -52.717598
 C         -61.081047     -163.291519      -54.760502
 C         -60.345322     -162.055756      -52.031067
 C         -61.889557     -162.202774      -54.022667
 C         -61.828339     -162.211746      -52.458801
 H         -58.396957     -163.022247      -52.388485
 H         -59.718971     -164.083038      -52.388752
 H         -61.086205     -162.985397      -55.863804
 H         -61.573120     -164.243927      -54.538887
 H         -60.033493     -161.139862      -52.335094
 H         -60.116341     -162.082565      -50.919384
 H         -62.928749     -162.383408      -54.405727
 H         -61.733219     -161.088150      -54.250389
 H         -62.583340     -161.554138      -51.983967
 H         -62.152359     -163.175568      -52.260887
