20
 generated by VMD
 C         -35.438637      -97.271500      -25.948008
 N         -34.439667      -97.851303      -26.027660
 H         -35.558620      -94.547707      -27.705872
 H         -36.416363      -96.758774      -25.793829
 C         -35.276852      -94.251755      -28.696644
 C         -35.959007      -95.158920      -29.732445
 C         -33.924908      -93.683807      -28.971882
 C         -35.765968      -94.592125      -31.126911
 C         -33.762917      -93.397072      -30.482418
 C         -34.312447      -94.315033      -31.457447
 H         -37.077194      -95.127136      -29.424768
 H         -35.648388      -96.213081      -29.688656
 H         -33.643517      -92.764305      -28.400593
 H         -33.236572      -94.470078      -28.538782
 H         -36.449509      -93.692802      -31.316801
 H         -36.172039      -95.314751      -31.783499
 H         -32.705639      -93.161156      -30.826080
 H         -34.186493      -92.409630      -30.607973
 H         -34.250141      -94.031380      -32.423359
 H         -33.704250      -95.268570      -31.368145
