20
 generated by VMD
 C         -50.823597     -129.793503      -46.172714
 N         -50.843704     -130.291840      -45.170456
 H         -47.997360     -131.943909      -44.476856
 H         -50.680016     -129.296082      -47.151470
 C         -47.934124     -131.830780      -43.341507
 C         -48.194851     -132.999451      -42.517303
 C         -47.961536     -130.472000      -42.610462
 C         -47.671497     -132.987488      -41.049103
 C         -47.357212     -130.503830      -41.236023
 C         -47.896904     -131.678513      -40.422729
 H         -47.727711     -133.831528      -42.977215
 H         -49.363655     -133.181854      -42.547256
 H         -47.446369     -129.602676      -43.231647
 H         -49.047623     -130.163940      -42.521935
 H         -46.655598     -133.352966      -41.078514
 H         -48.187515     -133.839050      -40.584106
 H         -47.523670     -129.750626      -40.531090
 H         -46.226379     -130.572861      -41.163086
 H         -47.322712     -131.671448      -39.480972
 H         -49.000507     -131.630035      -40.229610
