20
 generated by VMD
 C         -58.578918     -161.927872      -56.530643
 N         -57.697792     -161.296692      -56.151093
 H         -59.584129     -164.896301      -55.400196
 H         -59.401505     -162.577087      -56.809296
 C         -60.273148     -164.258682      -54.936638
 C         -59.950573     -163.568970      -53.613388
 C         -61.732136     -164.490509      -55.396465
 C         -61.031425     -162.484192      -53.113041
 C         -62.478458     -163.207809      -54.954803
 C         -62.470474     -162.874954      -53.455597
 H         -58.984375     -163.025955      -53.704716
 H         -59.790249     -164.352402      -52.896927
 H         -61.757061     -164.692307      -56.539837
 H         -62.163994     -165.416306      -55.031715
 H         -60.734386     -161.601883      -53.666393
 H         -60.869831     -162.082687      -52.071556
 H         -63.605698     -163.194565      -55.403790
 H         -61.875248     -162.413132      -55.415901
 H         -63.044487     -161.991623      -53.226730
 H         -62.863369     -163.627777      -52.739132
