20
 generated by VMD
 C         -42.066422     -120.327339      -34.744610
 N         -42.414803     -121.301605      -34.199909
 H         -43.701935     -120.141861      -37.723724
 H         -41.633999     -119.452293      -35.219631
 C         -44.006081     -119.366341      -38.373840
 C         -43.058422     -119.006737      -39.453506
 C         -45.244549     -118.546249      -38.043472
 C         -43.880482     -118.845619      -40.738117
 C         -46.034393     -118.616936      -39.380711
 C         -45.173252     -118.079048      -40.535408
 H         -42.298088     -119.822929      -39.695797
 H         -42.578976     -118.095253      -39.199009
 H         -46.000111     -119.063339      -37.451153
 H         -44.995628     -117.593636      -37.732742
 H         -44.183601     -119.837883      -41.163746
 H         -43.271450     -118.217705      -41.502693
 H         -46.937195     -117.831482      -39.268803
 H         -46.463814     -119.605270      -39.467983
 H         -45.843548     -118.158318      -41.396538
 H         -45.060791     -117.078247      -40.351749
