20
 generated by VMD
 C         -13.824951      -29.228764       -7.363314
 N         -13.414545      -29.052355       -8.383084
 H         -11.613473      -30.407669       -4.718812
 H         -10.077383      -30.171911       -3.714537
 C         -10.730812      -30.860598       -4.314406
 C          -9.830416      -31.389494       -5.484782
 C         -11.182239      -31.921469       -3.340136
 C          -8.670668      -32.311096       -5.002950
 C         -10.042021      -32.783710       -2.870410
 C          -9.124728      -33.373760       -3.960801
 H          -9.556093      -30.509264       -6.096424
 H         -10.423780      -32.045269       -6.207263
 H         -11.656378      -31.450045       -2.470296
 H         -11.894403      -32.653408       -3.767575
 H          -7.914331      -31.678257       -4.583393
 H          -8.267618      -32.850067       -5.848958
 H         -10.542081      -33.593140       -2.236122
 H          -9.499821      -32.182835       -2.175533
 H          -8.246501      -33.751095       -3.452550
 H          -9.634348      -34.088379       -4.547600
