20
 generated by VMD
 C         -21.977308      -52.283985      -11.482946
 N         -21.807791      -52.818584      -10.476739
 H         -20.054394      -52.204998      -14.039432
 H         -21.801329      -51.764606      -12.240904
 C         -18.972513      -51.931282      -13.807541
 C         -17.921289      -51.708473      -14.853869
 C         -18.604027      -51.840553      -12.351468
 C         -16.512327      -52.056763      -14.485345
 C         -17.127247      -51.494709      -12.103758
 C         -16.138147      -52.132729      -13.025694
 H         -17.968946      -50.744640      -15.354985
 H         -18.231825      -52.379948      -15.627378
 H         -19.276325      -51.153046      -11.857529
 H         -18.828701      -52.848202      -11.890330
 H         -15.906603      -51.246113      -14.969455
 H         -16.135162      -53.001587      -14.944807
 H         -16.783049      -51.752228      -11.065375
 H         -17.007959      -50.421761      -12.199353
 H         -15.136060      -51.685886      -12.856987
 H         -16.135798      -53.226723      -12.861290
