20
 generated by VMD
 C         -23.449385      -53.069920      -12.982738
 N         -23.165487      -52.642174      -13.990508
 H         -20.515961      -54.947803      -14.676672
 H         -23.757565      -53.769207      -12.205094
 C         -19.477596      -54.687778      -14.072433
 C         -18.964649      -53.304249      -14.103391
 C         -18.526733      -55.804653      -13.898568
 C         -17.855042      -53.182598      -13.115687
 C         -17.098358      -55.543678      -13.330927
 C         -16.616028      -54.087399      -13.347824
 H         -19.818117      -52.669987      -13.909887
 H         -18.510433      -53.043766      -15.024121
 H         -19.061230      -56.511059      -13.171256
 H         -18.505426      -56.299652      -14.880298
 H         -18.293892      -53.490639      -12.162364
 H         -17.545811      -52.116196      -12.995713
 H         -16.427374      -56.288834      -13.880681
 H         -17.082718      -55.884216      -12.301908
 H         -15.994320      -53.888397      -12.501807
 H         -16.133316      -53.881241      -14.302171
