20
 generated by VMD
 C         -59.520004     -152.152786      -50.749966
 N         -59.391052     -153.070572      -50.023739
 H         -56.578606     -151.108368      -48.402687
 H         -59.504585     -151.318893      -51.468266
 C         -55.947056     -150.931854      -49.290428
 C         -55.176182     -152.072021      -49.809952
 C         -55.466476     -149.491501      -49.200253
 C         -54.480789     -151.611542      -51.169952
 C         -54.789268     -149.153778      -50.580933
 C         -53.751083     -150.172791      -51.038109
 H         -55.750946     -152.965836      -49.894810
 H         -54.413525     -152.314102      -49.098545
 H         -56.442856     -148.930603      -49.185173
 H         -54.917210     -149.177673      -48.329128
 H         -55.269993     -151.504929      -51.942944
 H         -53.916363     -152.422058      -51.621082
 H         -54.329700     -148.075119      -50.367905
 H         -55.523434     -149.130585      -51.397079
 H         -53.246410     -149.994324      -51.996101
 H         -52.911568     -150.352936      -50.380539
