20
 generated by VMD
 C         -27.105970      -72.650940      -17.719063
 N         -27.872589      -73.344597      -17.192083
 H         -24.424128      -70.156105      -18.751188
 H         -26.542686      -71.789322      -18.321777
 C         -24.764915      -70.394608      -19.739147
 C         -24.243290      -71.709160      -20.353308
 C         -25.672796      -69.529305      -20.583975
 C         -25.361904      -72.364761      -21.337688
 C         -26.523657      -70.160492      -21.687916
 C         -25.916170      -71.344276      -22.410397
 H         -24.091990      -72.378738      -19.482677
 H         -23.318027      -71.622810      -20.901312
 H         -26.316687      -68.891212      -19.936892
 H         -25.088951      -68.781029      -21.065813
 H         -26.235975      -72.662025      -20.759928
 H         -24.910810      -73.316498      -21.712332
 H         -26.651127      -69.465111      -22.459499
 H         -27.532480      -70.268829      -21.480635
 H         -26.688879      -71.772926      -23.116262
 H         -24.999510      -71.019478      -23.021471
