20
 generated by VMD
 C         -27.453035      -84.596367      -26.385187
 N         -27.846592      -85.585770      -26.877090
 H         -31.337688      -84.755089      -26.063080
 H         -27.178438      -83.614677      -25.916014
 C         -31.888542      -85.663635      -25.792463
 C         -32.374535      -85.894737      -24.305220
 C         -32.249981      -86.630684      -26.905733
 C         -33.544479      -86.924850      -24.294100
 C         -33.494362      -87.389870      -26.606552
 C         -33.447147      -87.993011      -25.299820
 H         -32.696632      -84.989098      -23.807528
 H         -31.406891      -86.220879      -23.759544
 H         -32.353516      -86.085014      -27.888762
 H         -31.381212      -87.259621      -27.046690
 H         -34.561615      -86.524796      -24.219601
 H         -33.643837      -87.513306      -23.318363
 H         -33.617416      -88.238060      -27.373999
 H         -34.448563      -86.893547      -26.672785
 H         -34.293579      -88.663155      -25.231716
 H         -32.465488      -88.633896      -25.300426
