20
 generated by VMD
 C         -50.170685     -131.958237      -46.825378
 N         -49.966389     -132.501389      -47.771656
 H         -47.946140     -132.139084      -43.970135
 H         -50.256142     -131.693329      -45.782215
 C         -48.663235     -132.637329      -43.252819
 C         -49.513836     -133.759750      -43.805798
 C         -48.815876     -132.324463      -41.767227
 C         -49.368038     -135.050812      -42.915817
 C         -48.632507     -133.585922      -40.928211
 C         -49.500210     -134.702560      -41.356956
 H         -49.272999     -133.916550      -44.826927
 H         -50.580788     -133.332016      -43.769989
 H         -48.052795     -131.609375      -41.525055
 H         -49.897556     -131.943161      -41.531372
 H         -48.464954     -135.623840      -43.249916
 H         -50.181515     -135.749741      -43.223553
 H         -48.926872     -133.290405      -39.892506
 H         -47.615284     -133.860565      -40.932808
 H         -49.098694     -135.619492      -40.976192
 H         -50.576538     -134.560379      -41.160809
