20
 generated by VMD
 C         -31.677212      -78.721222      -26.414789
 N         -31.129404      -77.956131      -27.113581
 H         -29.385689      -79.921867      -24.403181
 H         -32.261669      -79.145195      -25.576033
 C         -28.966930      -80.815269      -23.968264
 C         -27.602024      -80.796478      -23.281290
 C         -29.885904      -81.869530      -23.639927
 C         -27.748983      -81.130249      -21.787285
 C         -30.028664      -82.089813      -22.069069
 C         -28.578810      -82.336113      -21.450407
 H         -27.194729      -79.792152      -23.497795
 H         -27.184668      -81.612236      -23.812885
 H         -30.935705      -81.537254      -23.958599
 H         -29.560534      -82.703255      -24.286726
 H         -28.210766      -80.334320      -21.212543
 H         -26.724279      -81.176308      -21.348454
 H         -30.750446      -82.998901      -21.788160
 H         -30.554056      -81.196854      -21.699955
 H         -28.681229      -82.485435      -20.382996
 H         -28.052261      -83.261604      -21.707668
