20
 generated by VMD
 C         -12.406393      -27.024343       -2.682180
 N         -12.871438      -27.767513       -2.007703
 H         -10.552664      -26.655846       -4.226846
 H          -9.164891      -26.321291       -5.311910
 C          -9.477992      -26.753202       -4.323780
 C          -9.042214      -28.224123       -4.478151
 C          -8.823214      -26.097818       -3.171307
 C          -7.476193      -28.281895       -4.529461
 C          -7.304404      -26.179502       -3.189425
 C          -6.869460      -27.564856       -3.291272
 H          -9.404689      -28.739002       -5.420561
 H          -9.406255      -28.630962       -3.533649
 H          -9.126809      -25.045029       -3.062922
 H          -9.056307      -26.632568       -2.241916
 H          -7.213469      -27.703833       -5.369345
 H          -7.136896      -29.315655       -4.587678
 H          -6.901223      -25.715229       -2.302266
 H          -6.947301      -25.605272       -4.089156
 H          -5.756127      -27.624393       -3.356979
 H          -7.137983      -28.156504       -2.425927
