20
 generated by VMD
 C         -10.666598      -36.582409       -8.761748
 N         -10.791055      -36.549530       -7.669430
 H         -13.361089      -37.403973       -7.108557
 H         -14.530695      -38.279240       -6.183506
 C         -13.982082      -38.248482       -7.192062
 C         -13.038218      -39.407349       -7.388733
 C         -15.040094      -38.243538       -8.239838
 C         -13.912976      -40.666313       -7.164751
 C         -15.832619      -39.504562       -8.249454
 C         -15.023833      -40.793980       -8.166546
 H         -12.275573      -39.353199       -6.645462
 H         -12.615834      -39.484268       -8.350266
 H         -15.679130      -37.383621       -7.995893
 H         -14.611690      -38.085316       -9.223476
 H         -14.321128      -40.617764       -6.165356
 H         -13.248920      -41.554276       -7.158367
 H         -16.432341      -39.478317       -9.187144
 H         -16.511234      -39.416878       -7.376324
 H         -15.639957      -41.687069       -8.009941
 H         -14.573992      -40.892803       -9.141124
