20
 generated by VMD
 C         -77.490807     -203.108963      -68.453384
 N         -77.689575     -204.065231      -67.813278
 H         -74.570984     -201.282349      -67.202469
 H         -77.269547     -202.179520      -68.863098
 C         -74.257896     -200.760269      -68.147972
 C         -75.095306     -199.570206      -68.615051
 C         -73.974686     -201.748962      -69.229736
 C         -74.333984     -198.836105      -69.722305
 C         -73.075119     -201.082336      -70.152550
 C         -73.752411     -199.724808      -70.735176
 H         -75.488792     -198.881851      -67.874138
 H         -76.087334     -199.991806      -69.076523
 H         -73.390793     -202.572754      -68.719528
 H         -74.886681     -202.052414      -69.702957
 H         -73.445831     -198.270157      -69.267143
 H         -74.978439     -198.127808      -70.264420
 H         -72.758781     -201.695999      -71.073914
 H         -72.043175     -200.680496      -69.722870
 H         -73.039757     -199.236664      -71.341431
 H         -74.559357     -200.005951      -71.527153
