20
 generated by VMD
 C         -23.282970      -53.437553      -14.278567
 N         -24.201582      -53.243122      -15.035258
 H         -20.559799      -55.650242      -15.009003
 H         -22.396873      -53.542717      -13.535861
 C         -19.606825      -55.425377      -14.547551
 C         -19.305941      -54.292171      -13.684298
 C         -18.472597      -56.358761      -14.941607
 C         -18.111399      -54.447556      -12.668847
 C         -17.841454      -56.832748      -13.603980
 C         -17.182671      -55.671410      -12.937649
 H         -20.224035      -54.144119      -13.143622
 H         -19.149364      -53.445583      -14.359566
 H         -18.779476      -57.281063      -15.475293
 H         -17.747858      -55.879467      -15.570079
 H         -18.476137      -54.511997      -11.609049
 H         -17.523323      -53.512779      -12.796401
 H         -17.052307      -57.595245      -13.895821
 H         -18.533689      -57.361694      -12.986789
 H         -16.864344      -56.050453      -11.989375
 H         -16.377310      -55.334362      -13.586143
