20
 generated by VMD
 C         -22.662146      -55.236774      -15.286443
 N         -23.124222      -55.190979      -16.317307
 H         -18.767904      -54.604935      -15.359563
 H         -22.014959      -54.996689      -14.562782
 C         -19.209709      -55.344528      -14.789039
 C         -19.038612      -55.139584      -13.303110
 C         -19.510601      -56.685349      -15.453913
 C         -19.575363      -56.424812      -12.588976
 C         -19.437330      -57.923138      -14.597724
 C         -19.065466      -57.748268      -13.188433
 H         -19.653744      -54.331291      -12.913680
 H         -17.969599      -55.007744      -13.153241
 H         -20.540632      -56.551003      -15.801751
 H         -18.922977      -56.936665      -16.343441
 H         -20.661346      -56.477089      -12.666977
 H         -19.477787      -56.316986      -11.478267
 H         -18.710289      -58.567783      -15.055528
 H         -20.468967      -58.380333      -14.603407
 H         -19.437191      -58.642632      -12.631998
 H         -17.948980      -57.870636      -13.065271
