20
 generated by VMD
 C          -1.918932      -13.142743        0.520810
 N          -1.578047      -13.428176        1.536928
 H          -3.655713      -16.335318        1.889811
 H          -3.808003      -16.085150        0.131078
 C          -4.394010      -16.310934        1.037592
 C          -5.339451      -15.207764        1.495359
 C          -5.033773      -17.651760        0.945387
 C          -6.627135      -15.171113        0.766333
 C          -6.288547      -17.689800        0.089326
 C          -7.255032      -16.548710        0.634806
 H          -4.821050      -14.262160        1.585331
 H          -5.590771      -15.344095        2.571051
 H          -4.265790      -18.433626        0.457288
 H          -5.287327      -18.005592        2.018260
 H          -6.495408      -14.688213       -0.263241
 H          -7.402895      -14.513280        1.266935
 H          -6.815406      -18.638079        0.077705
 H          -5.973894      -17.440821       -0.957617
 H          -8.171864      -16.474743        0.030717
 H          -7.593948      -16.801044        1.642957
