20
 generated by VMD
 C         -62.518456     -174.007812      -55.198147
 N         -63.665749     -174.142258      -55.219048
 H         -62.388386     -172.295197      -57.895992
 H         -61.449619     -173.978989      -55.281887
 C         -63.122181     -171.617661      -58.337471
 C         -63.036152     -170.307236      -57.608192
 C         -64.145126     -171.949219      -59.398777
 C         -63.746803     -169.188202      -58.215466
 C         -64.665016     -170.744965      -60.178162
 C         -64.912018     -169.637604      -59.133091
 H         -61.921661     -170.117874      -57.496700
 H         -63.380344     -170.560867      -56.585133
 H         -63.641418     -172.616196      -59.967903
 H         -64.855179     -172.671890      -59.025238
 H         -62.973095     -168.659546      -58.849678
 H         -64.131737     -168.385452      -57.416859
 H         -65.566505     -170.963287      -60.731934
 H         -63.932205     -170.369247      -60.805145
 H         -65.172173     -168.785492      -59.752487
 H         -65.827148     -169.896774      -58.515892
