20
 generated by VMD
 C         -38.990170      -98.865196      -27.888147
 N         -38.548195      -99.889046      -27.577406
 H         -37.238548      -98.541115      -30.540518
 H         -39.550755      -97.922539      -27.966068
 C         -36.371025      -97.883537      -30.765713
 C         -35.695831      -98.247704      -32.062561
 C         -35.665009      -97.292587      -29.638680
 C         -34.422089      -97.422668      -32.273285
 C         -34.455193      -96.516708      -29.906666
 C         -33.571678      -97.186607      -31.046844
 H         -36.212555      -98.222900      -33.011078
 H         -35.347485      -99.256310      -31.895250
 H         -36.343166      -96.577705      -29.166977
 H         -35.461922      -98.071960      -28.940321
 H         -34.742027      -96.476410      -32.642422
 H         -33.806126      -97.648270      -33.142910
 H         -33.862514      -96.417404      -28.959290
 H         -34.744484      -95.535088      -30.165749
 H         -32.811089      -96.392464      -31.120070
 H         -33.025295      -98.155777      -30.850224
