20
 generated by VMD
 C         -40.948624     -101.126503      -32.822430
 N         -42.043499     -101.482887      -32.770660
 H         -38.456181     -103.219635      -32.554749
 H         -39.852158     -100.865234      -32.977158
 C         -37.597931     -102.768799      -32.016983
 C         -36.290119     -102.809189      -32.817581
 C         -37.500076     -102.782906      -30.516163
 C         -35.280190     -101.843987      -32.347118
 C         -36.135414     -102.172668      -30.031445
 C         -35.003662     -102.334419      -30.943512
 H         -36.553516     -102.450912      -33.860386
 H         -35.973488     -103.896751      -32.842155
 H         -38.393070     -102.373085      -30.210760
 H         -37.441448     -103.826729      -30.222553
 H         -35.506504     -100.739876      -32.334572
 H         -34.364746     -101.965889      -33.072319
 H         -35.584980     -102.686432      -29.143568
 H         -36.357704     -101.136665      -29.752617
 H         -34.068993     -101.837563      -30.518087
 H         -34.579742     -103.330727      -31.064426
