20
 generated by VMD
 C         -40.120445     -105.774147      -36.973991
 N         -40.103432     -106.740105      -37.622059
 H         -38.753799     -107.759087      -34.640335
 H         -40.294052     -104.799637      -36.595825
 C         -39.150578     -108.676636      -34.203320
 C         -38.414028     -109.377380      -33.105377
 C         -40.649551     -108.971588      -34.518875
 C         -39.280510     -109.702568      -31.908825
 C         -41.394386     -109.207466      -33.208092
 C         -40.679504     -110.228249      -32.297955
 H         -37.656609     -108.614830      -32.807823
 H         -38.052113     -110.307724      -33.606079
 H         -41.001812     -108.091690      -35.031200
 H         -40.688007     -109.884094      -35.221874
 H         -39.189213     -108.799149      -31.283785
 H         -38.809307     -110.561302      -31.408768
 H         -42.230427     -109.811378      -33.525108
 H         -41.621788     -108.299171      -32.670746
 H         -41.372608     -110.408112      -31.443132
 H         -40.588993     -111.221718      -32.850998
