20
 generated by VMD
 C         -58.498409     -159.076965      -57.621540
 N         -59.257854     -158.305054      -57.906635
 H         -59.640659     -159.480545      -54.195583
 H         -57.749851     -159.795059      -57.292061
 C         -59.500607     -160.420242      -53.750938
 C         -58.460491     -160.655609      -52.688408
 C         -60.617661     -161.429596      -53.810650
 C         -59.184925     -160.865112      -51.303642
 C         -61.308289     -161.720657      -52.456081
 C         -60.176964     -162.053802      -51.469471
 H         -57.688091     -159.869888      -52.590496
 H         -58.043613     -161.542877      -53.015625
 H         -61.486572     -161.176788      -54.504848
 H         -60.054798     -162.263718      -54.292175
 H         -59.769817     -159.895706      -51.183094
 H         -58.540676     -160.900574      -50.496803
 H         -61.999439     -162.618622      -52.582977
 H         -61.898804     -160.806885      -52.145000
 H         -60.544537     -162.242096      -50.397717
 H         -59.665771     -162.987503      -51.565655
