20
 generated by VMD
 C         -19.479050      -59.832367      -17.096666
 N         -18.871946      -60.743206      -16.696711
 H         -22.948700      -61.093582      -17.532202
 H         -20.149765      -58.915871      -17.248550
 C         -23.358635      -62.039219      -17.220736
 C         -24.210381      -62.879894      -18.110605
 C         -23.270985      -62.279354      -15.775271
 C         -23.843596      -64.386108      -17.873503
 C         -23.307682      -63.756973      -15.448911
 C         -24.179405      -64.664009      -16.414219
 H         -24.070469      -62.554352      -19.137087
 H         -25.237560      -62.743340      -18.000805
 H         -22.340519      -61.779949      -15.411283
 H         -23.987194      -61.737423      -15.218653
 H         -22.739223      -64.416138      -18.119320
 H         -24.236170      -65.074905      -18.620266
 H         -23.772274      -63.880173      -14.448457
 H         -22.273010      -64.164024      -15.600654
 H         -23.712154      -65.626350      -16.276836
 H         -25.228466      -64.758354      -16.191999
