20
 generated by VMD
 C         -39.957371     -107.399979      -37.824669
 N         -39.113457     -106.588127      -37.833580
 H         -39.141144     -108.626534      -35.126076
 H         -40.694630     -108.094917      -37.451317
 C         -39.692768     -109.072945      -34.344013
 C         -38.936462     -110.093002      -33.464245
 C         -41.245178     -108.975418      -34.201050
 C         -39.763596     -110.971230      -32.431732
 C         -41.793301     -109.641113      -32.964069
 C         -41.204380     -111.079750      -32.824066
 H         -38.199837     -109.561584      -32.897480
 H         -38.439316     -110.842140      -34.140320
 H         -41.553520     -107.868774      -34.097908
 H         -41.824799     -109.320297      -35.057453
 H         -39.603756     -110.436623      -31.471373
 H         -39.422459     -111.906158      -32.166332
 H         -42.878334     -109.791420      -33.092937
 H         -41.549637     -109.073502      -31.957245
 H         -41.728920     -111.591583      -31.991951
 H         -41.344509     -111.800529      -33.747318
