20
 generated by VMD
 C         -28.985891      -81.425262      -27.691465
 N         -29.764830      -80.594925      -27.497042
 H         -29.133621      -82.155853      -23.872612
 H         -28.275576      -82.169289      -27.639696
 C         -29.575266      -83.159706      -23.810890
 C         -29.763765      -83.877258      -22.580030
 C         -30.048857      -83.903603      -24.955412
 C         -31.348597      -83.923248      -22.295322
 C         -31.580587      -84.237114      -24.935148
 C         -32.009151      -84.684433      -23.445223
 H         -29.285028      -83.266182      -21.841141
 H         -29.240170      -84.859009      -22.723202
 H         -29.833828      -83.281151      -25.768778
 H         -29.520035      -84.850250      -25.089727
 H         -31.686218      -82.927101      -22.182055
 H         -31.450443      -84.597290      -21.296522
 H         -31.974045      -85.119667      -25.541790
 H         -32.231789      -83.426865      -25.181734
 H         -33.048161      -84.638962      -23.338621
 H         -31.793579      -85.772514      -23.300089
