20
 generated by VMD
 C         -79.535606     -206.505402      -75.088234
 N         -79.887856     -206.273300      -74.024323
 H         -78.758873     -206.763855      -71.313744
 H         -79.460304     -206.895294      -76.088455
 C         -77.734917     -206.749222      -70.784798
 C         -76.476883     -205.912842      -71.266029
 C         -77.252678     -208.034515      -70.076721
 C         -75.221901     -205.893295      -70.384003
 C         -76.094482     -207.938202      -69.149071
 C         -74.947701     -207.253418      -69.796150
 H         -76.713326     -204.786331      -71.341522
 H         -76.476540     -206.364319      -72.278793
 H         -78.108856     -208.370224      -69.525070
 H         -77.044258     -208.737396      -70.917557
 H         -75.353027     -205.119415      -69.634933
 H         -74.362640     -205.520798      -70.938988
 H         -75.859299     -208.917908      -68.751236
 H         -76.349182     -207.408905      -68.209801
 H         -74.195740     -206.957611      -68.982773
 H         -74.306778     -207.948624      -70.369888
