20
 generated by VMD
 C         -21.894922      -52.269970      -11.485332
 N         -21.796814      -52.844349      -10.452091
 H         -20.016598      -52.281139      -14.036380
 H         -21.962339      -51.821823      -12.352888
 C         -19.027359      -51.844475      -13.796948
 C         -17.974606      -51.734356      -14.852399
 C         -18.569523      -51.760719      -12.367754
 C         -16.485910      -52.058701      -14.474718
 C         -17.112629      -51.415112      -12.088930
 C         -16.127581      -52.172459      -13.014210
 H         -18.062611      -50.750019      -15.281117
 H         -18.236578      -52.467335      -15.656182
 H         -19.216492      -51.075771      -11.848897
 H         -18.680691      -52.750999      -11.920046
 H         -15.870367      -51.186287      -14.807893
 H         -16.197142      -52.874393      -15.145741
 H         -16.903097      -51.647484      -11.021438
 H         -17.026905      -50.283409      -12.199843
 H         -15.091624      -51.770878      -12.844728
 H         -16.036186      -53.244488      -12.660408
