20
 generated by VMD
 C         -20.007690      -51.946640      -10.019700
 N         -20.941231      -51.297977       -9.851879
 H         -17.814255      -49.046528      -10.342132
 H         -19.292561      -52.561104      -10.425661
 C         -17.459078      -49.166153      -11.402575
 C         -16.604958      -50.378586      -11.653869
 C         -17.226147      -47.931683      -12.230424
 C         -16.668812      -50.748905      -13.137184
 C         -17.253677      -48.208008      -13.723113
 C         -16.401844      -49.479496      -13.999577
 H         -16.842133      -51.181061      -10.923257
 H         -15.564277      -50.190567      -11.382955
 H         -17.860577      -47.099461      -11.879371
 H         -16.166538      -47.734764      -12.058850
 H         -17.493858      -51.341724      -13.501677
 H         -15.822617      -51.449852      -13.242743
 H         -16.910721      -47.432003      -14.323349
 H         -18.328455      -48.243042      -14.079401
 H         -16.457756      -49.750015      -15.060964
 H         -15.364432      -49.219944      -13.796467
