20
 generated by VMD
 C         -49.684639     -133.124237      -46.806950
 N         -48.793888     -132.531418      -47.154556
 H         -48.319378     -134.152649      -44.522820
 H         -50.324928     -133.868896      -46.316227
 C         -48.998734     -134.769882      -43.928246
 C         -49.385902     -136.175949      -44.192448
 C         -49.928528     -133.834061      -43.244690
 C         -50.031853     -136.864090      -43.031673
 C         -50.714233     -134.558716      -42.037952
 C         -51.229080     -135.967804      -42.424828
 H         -48.427624     -136.618286      -44.325588
 H         -49.950306     -136.333023      -45.121773
 H         -49.418571     -132.924271      -42.943043
 H         -50.631779     -133.564529      -44.107613
 H         -49.373215     -137.086746      -42.179001
 H         -50.485729     -137.757111      -43.328625
 H         -51.630558     -133.982605      -41.697567
 H         -50.058357     -134.568695      -41.134964
 H         -51.620964     -136.397980      -41.519196
 H         -52.020027     -135.671753      -43.152260
