20
 generated by VMD
 C         -68.354973     -194.261551      -66.503685
 N         -67.710281     -194.047852      -65.525703
 H         -70.240074     -191.028885      -66.419792
 H         -69.076637     -194.532043      -67.205528
 C         -71.258667     -191.029602      -65.984413
 C         -72.416245     -190.237183      -66.615829
 C         -71.506638     -191.919968      -64.853226
 C         -73.801910     -190.881393      -66.543449
 C         -72.847633     -191.743271      -64.275192
 C         -73.902100     -192.014282      -65.393578
 H         -72.237686     -190.030960      -67.640480
 H         -72.339172     -189.194153      -66.079391
 H         -71.317841     -192.935364      -65.087364
 H         -70.897781     -191.726639      -63.947758
 H         -73.943283     -191.480942      -67.455742
 H         -74.595215     -190.101379      -66.399826
 H         -73.005447     -190.822968      -63.648708
 H         -73.015251     -192.513626      -63.559574
 H         -73.737556     -193.120636      -65.763908
 H         -74.896080     -192.121384      -65.012665
