20
 generated by VMD
 C         -40.836834     -103.881264      -37.139194
 N         -40.725986     -104.774391      -36.419510
 H         -39.953377     -105.658340      -33.807049
 H         -40.905342     -103.231361      -38.038143
 C         -39.368668     -106.569778      -33.397171
 C         -37.983505     -106.240578      -32.875732
 C         -39.771969     -107.970543      -33.437786
 C         -37.717327     -106.824547      -31.381208
 C         -39.552280     -108.639091      -31.981607
 C         -38.185009     -108.314941      -31.376791
 H         -38.036381     -105.133179      -32.820976
 H         -37.207691     -106.598541      -33.479591
 H         -40.909943     -107.979515      -33.679985
 H         -39.220428     -108.683441      -34.038467
 H         -38.314159     -106.219551      -30.712534
 H         -36.684166     -106.758850      -31.042076
 H         -39.524342     -109.740776      -32.052696
 H         -40.244324     -108.260284      -31.230167
 H         -38.203087     -108.873581      -30.408279
 H         -37.486717     -108.813530      -32.021061
