20
 generated by VMD
 C         -11.953412      -25.937265       -0.091115
 N         -12.957448      -26.201876       -0.528167
 H          -9.792070      -26.865940       -3.155195
 H          -9.551664      -25.725237       -4.507862
 C          -9.033904      -26.215698       -3.650072
 C          -7.991808      -27.262394       -4.162658
 C          -8.333460      -25.097620       -2.804313
 C          -6.749862      -26.646423       -4.734551
 C          -7.135978      -24.451429       -3.570413
 C          -6.122149      -25.563618       -3.854839
 H          -8.406907      -27.880207       -4.908879
 H          -7.789946      -27.858570       -3.238195
 H          -9.091188      -24.360840       -2.621420
 H          -8.052440      -25.416286       -1.765181
 H          -6.945184      -26.203331       -5.733480
 H          -5.966864      -27.429489       -4.823030
 H          -6.632989      -23.711243       -2.918327
 H          -7.516039      -24.008617       -4.486312
 H          -5.275932      -25.186163       -4.422756
 H          -5.825845      -26.090773       -2.922351
