20
 generated by VMD
 C         -60.117752     -157.350067      -56.271587
 N         -59.514549     -158.318527      -56.563271
 H         -60.240601     -157.425705      -53.110008
 H         -60.719765     -156.466873      -56.108376
 C         -59.449032     -158.160263      -52.917492
 C         -58.082172     -157.930679      -52.336979
 C         -59.810211     -159.664017      -53.152367
 C         -57.769772     -158.903625      -51.059628
 C         -59.383930     -160.579254      -52.026672
 C         -57.949593     -160.323074      -51.503410
 H         -57.981003     -156.886124      -52.124035
 H         -57.394176     -158.242188      -53.171185
 H         -60.832897     -159.708267      -53.405113
 H         -59.425671     -159.903687      -54.167831
 H         -58.449322     -158.485565      -50.303757
 H         -56.790031     -158.772522      -50.712643
 H         -59.321602     -161.621933      -52.272156
 H         -60.159168     -160.458633      -51.273945
 H         -57.712349     -161.076401      -50.664349
 H         -57.258701     -160.397339      -52.334068
