20
 generated by VMD
 C         -13.972845      -43.236588       -6.487565
 N         -13.054891      -43.636219       -5.977755
 H         -14.978584      -45.192574       -8.908434
 H         -14.221955      -43.991550       -9.837597
 C         -15.166716      -44.521984       -9.770899
 C         -16.370586      -43.648968       -9.596372
 C         -15.413743      -45.345108      -11.037749
 C         -16.849329      -42.770592      -10.763334
 C         -16.059107      -44.606617      -12.219365
 C         -17.203379      -43.686310      -11.932301
 H         -16.237055      -42.931828       -8.770344
 H         -17.171532      -44.347137       -9.219456
 H         -14.493795      -45.863979      -11.346979
 H         -16.037567      -46.260384      -10.787039
 H         -16.087431      -42.041283      -11.026542
 H         -17.750496      -42.203178      -10.484687
 H         -16.378597      -45.281178      -13.089581
 H         -15.287029      -43.937527      -12.664023
 H         -17.351683      -43.123611      -12.821870
 H         -18.121197      -44.173965      -11.677438
