20
 generated by VMD
 C         -39.786297     -100.970032      -31.394999
 N         -40.551292     -100.128143      -31.222404
 H         -37.455173     -103.378502      -31.523159
 H         -39.233200     -101.920082      -31.765820
 C         -36.928024     -102.465401      -31.467205
 C         -36.283890     -101.859276      -32.776802
 C         -36.470245     -102.028603      -30.135382
 C         -35.833321     -100.343910      -32.581078
 C         -36.285675     -100.440376      -30.086889
 C         -35.142025     -100.172112      -31.157648
 H         -36.948120     -102.042542      -33.618080
 H         -35.354107     -102.512581      -32.822937
 H         -37.129837     -102.470436      -29.294716
 H         -35.517124     -102.492271      -29.917459
 H         -36.717545      -99.762688      -32.636517
 H         -35.150307     -100.216049      -33.424252
 H         -35.908962     -100.150444      -29.061779
 H         -37.261616      -99.903427      -30.321697
 H         -34.769024      -99.190887      -31.038149
 H         -34.347801     -100.909370      -31.044867
