20
 generated by VMD
 C         -50.809437     -129.159286      -44.793598
 N         -50.942314     -130.210922      -44.261555
 H         -49.038139     -128.262039      -41.465450
 H         -50.548939     -128.304398      -45.371689
 C         -48.065079     -128.626343      -41.277016
 C         -47.874546     -130.042664      -40.958443
 C         -47.112652     -127.620026      -40.822891
 C         -46.458355     -130.462814      -41.469196
 C         -45.718651     -127.914948      -41.330410
 C         -45.371887     -129.407227      -41.015842
 H         -48.509083     -130.662720      -41.486885
 H         -47.886242     -130.293854      -39.857132
 H         -47.505512     -126.581161      -41.185814
 H         -47.047558     -127.508186      -39.799843
 H         -46.345642     -130.549255      -42.535435
 H         -46.321537     -131.419769      -40.972794
 H         -44.974617     -127.166466      -40.868057
 H         -45.615303     -127.942787      -42.484818
 H         -44.407562     -129.656006      -41.501724
 H         -45.319126     -129.406281      -39.967407
