20
 generated by VMD
 C         -21.570898      -66.609100      -16.797905
 N         -20.921455      -66.905472      -15.878628
 H         -24.115616      -64.513229      -18.030243
 H         -22.349054      -66.180756      -17.295080
 C         -24.644737      -65.345291      -18.628017
 C         -24.080990      -65.876450      -19.863579
 C         -25.868237      -65.992050      -18.020620
 C         -24.415028      -67.401787      -20.120605
 C         -25.776842      -67.538155      -18.059298
 C         -25.687069      -67.935814      -19.558153
 H         -23.082291      -65.763184      -19.861204
 H         -24.487595      -65.236671      -20.680079
 H         -26.207678      -65.647408      -16.937977
 H         -26.625536      -65.570816      -18.724878
 H         -23.523211      -68.006294      -19.699474
 H         -24.396484      -67.677223      -21.183809
 H         -26.762674      -67.819504      -17.569075
 H         -24.939766      -67.968636      -17.506807
 H         -25.476641      -69.011063      -19.392244
 H         -26.595737      -67.884193      -20.144665
