20
 generated by VMD
 C         -68.923553     -193.473343      -66.658379
 N         -67.815712     -193.569870      -66.317696
 H         -70.064079     -190.218597      -65.551132
 H         -69.968239     -193.360138      -66.617577
 C         -71.000107     -190.724960      -65.453323
 C         -71.972900     -190.615097      -66.626656
 C         -71.439941     -191.156418      -64.113670
 C         -73.099548     -191.595078      -66.515594
 C         -73.043495     -191.013809      -64.028435
 C         -73.661354     -191.808533      -65.172958
 H         -71.514420     -190.852814      -67.512680
 H         -72.283043     -189.532104      -66.791580
 H         -71.044296     -192.086533      -63.948536
 H         -70.984070     -190.541702      -63.313450
 H         -72.726929     -192.511887      -66.856995
 H         -73.951584     -191.274368      -67.073685
 H         -73.236519     -189.910233      -64.090729
 H         -73.432915     -191.241684      -63.080181
 H         -73.668381     -192.868790      -64.657318
 H         -74.746536     -191.678711      -65.297981
