20
 generated by VMD
 C         -28.526834      -82.488319      -26.332500
 N         -27.840570      -82.610062      -27.255226
 H         -31.564341      -83.881508      -26.303482
 H         -29.026974      -82.367920      -25.337526
 C         -31.254225      -84.671150      -25.722021
 C         -30.753773      -84.398178      -24.427122
 C         -31.918383      -85.934242      -26.033783
 C         -31.775257      -84.833611      -23.284441
 C         -32.990025      -86.256378      -25.019094
 C         -32.357979      -86.303329      -23.590141
 H         -30.419285      -83.370377      -24.421421
 H         -29.874962      -85.192947      -24.255875
 H         -32.264557      -86.085304      -27.053322
 H         -31.098797      -86.661880      -25.897890
 H         -32.630856      -84.186592      -23.127447
 H         -31.185635      -84.870560      -22.260790
 H         -33.363388      -87.271049      -25.326056
 H         -33.821030      -85.598061      -25.096294
 H         -33.025520      -86.601349      -22.822346
 H         -31.516134      -87.007149      -23.452280
