20
 generated by VMD
 C         -37.932064     -107.971497      -37.218559
 N         -38.684566     -107.819427      -38.106651
 H         -40.874619     -108.687149      -35.377850
 H         -37.017704     -108.134758      -36.642605
 C         -41.052837     -109.333382      -34.536358
 C         -40.154800     -110.487747      -34.806675
 C         -42.401882     -109.763885      -33.954277
 C         -40.033875     -111.395218      -33.564102
 C         -42.186825     -110.601997      -32.674271
 C         -41.329262     -111.776947      -32.966953
 H         -39.145725     -110.152641      -34.838142
 H         -40.440163     -111.119118      -35.634666
 H         -42.917759     -108.792419      -33.648037
 H         -43.016964     -110.367653      -34.618912
 H         -39.533123     -110.704254      -32.951767
 H         -39.413544     -112.318512      -33.808502
 H         -43.190144     -110.807190      -32.314327
 H         -41.700817     -110.030052      -31.854149
 H         -41.091393     -112.313988      -31.907661
 H         -41.832935     -112.580162      -33.519604
