20
 generated by VMD
 C          -1.729532      -14.022998        2.333231
 N          -1.849582      -14.142760        1.229312
 H          -3.743136      -16.859379        1.253463
 H          -4.287818      -17.088232       -0.477076
 C          -4.631464      -16.955709        0.561442
 C          -5.388242      -15.624983        0.511829
 C          -5.508013      -18.258150        0.867907
 C          -6.716676      -15.778768       -0.245255
 C          -6.786891      -18.204803        0.021506
 C          -7.562908      -16.979643        0.279337
 H          -4.719848      -14.857394        0.174219
 H          -5.661122      -15.306748        1.576283
 H          -4.935510      -19.200371        0.620106
 H          -5.782195      -18.140770        1.976635
 H          -6.525205      -15.888161       -1.291446
 H          -7.347076      -14.890005       -0.232497
 H          -7.403936      -19.016081        0.297800
 H          -6.501479      -18.389292       -1.004356
 H          -8.521728      -17.040199       -0.292574
 H          -7.856836      -16.756111        1.308428
