20
 generated by VMD
 C         -29.731367      -91.133247      -25.262312
 N         -28.989887      -92.010185      -24.975487
 H         -32.309471      -90.444054      -26.761553
 H         -30.468908      -90.406013      -25.592310
 C         -33.100025      -90.474457      -27.520567
 C         -34.263775      -91.540192      -27.434759
 C         -33.110577      -89.621269      -28.704182
 C         -35.625233      -90.806465      -27.508654
 C         -34.506870      -88.883415      -28.726238
 C         -35.579849      -89.940498      -28.769037
 H         -34.151958      -92.041786      -26.398729
 H         -34.200378      -92.297134      -28.263111
 H         -32.373108      -88.833557      -28.697151
 H         -32.963955      -90.253304      -29.585587
 H         -35.871780      -90.362259      -26.588327
 H         -36.248394      -91.651184      -27.574722
 H         -34.736855      -88.261314      -29.582005
 H         -34.736217      -88.409889      -27.787764
 H         -36.421257      -89.286392      -28.688972
 H         -35.547943      -90.540787      -29.668364
