20
 generated by VMD
 C         -28.988789      -73.437706      -19.168261
 N         -29.619114      -74.287926      -18.661390
 H         -25.194431      -72.882736      -18.853838
 H         -28.561260      -72.676308      -19.823757
 C         -25.573032      -72.811523      -19.860142
 C         -24.897320      -73.869995      -20.752537
 C         -25.713911      -71.369751      -20.373835
 C         -25.492771      -73.855286      -22.153929
 C         -26.292076      -71.330460      -21.872950
 C         -25.585943      -72.497887      -22.727510
 H         -24.873932      -74.867401      -20.272648
 H         -23.781916      -73.452721      -20.897882
 H         -26.283155      -70.866623      -19.589378
 H         -24.726318      -70.910759      -20.394426
 H         -26.494471      -74.208565      -22.150492
 H         -24.906595      -74.417969      -22.848564
 H         -26.322683      -70.351768      -22.329706
 H         -27.346079      -71.698120      -21.784050
 H         -25.995426      -72.643578      -23.734549
 H         -24.547056      -71.991844      -22.899279
