20
 generated by VMD
 C         -20.127470      -56.119392      -16.789618
 N         -21.252682      -56.300415      -16.746668
 H         -22.502718      -59.233738      -17.180567
 H         -19.207699      -55.840916      -16.476904
 C         -22.360914      -59.896904      -16.341013
 C         -22.453115      -59.262753      -15.032718
 C         -21.958231      -61.321743      -16.454346
 C         -21.312988      -59.693127      -14.040242
 C         -20.705772      -61.486919      -15.663044
 C         -21.051748      -61.247227      -14.189238
 H         -23.455109      -59.317558      -14.509806
 H         -22.312162      -58.239765      -15.323942
 H         -22.742250      -61.931496      -16.000811
 H         -21.816362      -61.615017      -17.484457
 H         -21.711451      -59.584698      -13.009489
 H         -20.499016      -59.027966      -14.010667
 H         -19.800005      -60.948452      -16.032589
 H         -20.346407      -62.570766      -15.682906
 H         -21.920715      -61.895950      -13.908608
 H         -20.169737      -61.557144      -13.670688
