20
 generated by VMD
 C         -41.041119     -104.091988      -35.888390
 N         -41.879246     -104.852859      -36.054043
 H         -38.417316     -104.075188      -33.654869
 H         -40.451359     -103.161179      -35.712677
 C         -38.267006     -104.817017      -32.852802
 C         -36.871178     -105.250572      -32.374626
 C         -39.243031     -105.967506      -33.101437
 C         -36.994259     -106.217567      -31.254583
 C         -39.225925     -107.035896      -31.992949
 C         -37.812363     -107.439758      -31.548336
 H         -36.325626     -104.265022      -32.088886
 H         -36.401287     -105.664742      -33.320709
 H         -40.324387     -105.616203      -33.203148
 H         -38.984272     -106.394218      -34.025265
 H         -37.410362     -105.681091      -30.458122
 H         -36.131416     -106.754517      -30.948986
 H         -39.510864     -108.048836      -32.532421
 H         -39.926823     -107.035370      -31.162048
 H         -37.727150     -108.093674      -30.729155
 H         -37.365330     -108.016266      -32.424412
