20
 generated by VMD
 C         -12.743820      -27.908600       -5.739028
 N         -13.093980      -28.502378       -6.618146
 H         -12.071290      -31.610046       -4.779046
 H         -11.131775      -30.299063       -5.190648
 C         -11.066182      -31.231989       -4.668571
 C          -9.900915      -32.037212       -5.335878
 C         -10.734635      -30.937231       -3.176610
 C          -8.623483      -31.196787       -5.267826
 C          -9.371279      -30.292927       -3.068663
 C          -8.248161      -31.062513       -3.743338
 H         -10.313713      -32.280266       -6.328906
 H          -9.768179      -32.969467       -4.735893
 H         -11.492936      -30.248009       -2.732873
 H         -10.768856      -31.902685       -2.594845
 H          -8.795450      -30.161716       -5.684687
 H          -7.826393      -31.664234       -5.888479
 H          -9.059034      -30.073509       -1.994386
 H          -9.457131      -29.352232       -3.565917
 H          -7.337054      -30.567846       -3.533757
 H          -8.196522      -32.049076       -3.339018
