20
 generated by VMD
 C         -29.977308      -74.044395      -20.680992
 N         -29.953880      -75.139435      -20.302847
 H         -27.336695      -74.462563      -19.369696
 H         -30.203299      -72.898628      -20.671429
 C         -26.602474      -74.313995      -20.145430
 C         -26.055887      -75.438454      -20.942764
 C         -26.039955      -72.944847      -20.346134
 C         -26.005789      -75.097549      -22.410538
 C         -25.948425      -72.654411      -21.866034
 C         -25.279182      -73.744972      -22.714716
 H         -26.843740      -76.250618      -20.845903
 H         -25.129578      -75.827873      -20.465248
 H         -26.706701      -72.060310      -20.081177
 H         -25.025656      -72.721581      -19.836443
 H         -26.940126      -74.961830      -22.929367
 H         -25.531681      -75.978516      -22.871941
 H         -25.247465      -71.764076      -21.982689
 H         -26.945068      -72.417297      -22.246784
 H         -25.412748      -73.549026      -23.806208
 H         -24.191944      -73.739197      -22.663774
