20
 generated by VMD
 C         -12.344278      -27.074005       -2.685850
 N         -13.028216      -27.738468       -2.103296
 H         -10.596309      -26.798401       -4.333178
 H          -9.203378      -26.264059       -5.274546
 C          -9.478498      -26.807444       -4.377995
 C          -9.003496      -28.238941       -4.389688
 C          -8.864799      -26.163307       -3.096820
 C          -7.503516      -28.259375       -4.564587
 C          -7.312900      -26.210821       -3.191575
 C          -6.813992      -27.672567       -3.360331
 H          -9.491981      -28.731167       -5.184929
 H          -9.186365      -28.861994       -3.478006
 H          -9.207970      -25.135950       -3.117995
 H          -9.272651      -26.736427       -2.239010
 H          -7.172548      -27.730391       -5.529302
 H          -7.197728      -29.307243       -4.701339
 H          -6.868938      -25.699736       -2.307234
 H          -7.039520      -25.552338       -3.999175
 H          -5.746790      -27.775667       -3.456051
 H          -7.040592      -28.246811       -2.428208
