20
 generated by VMD
 C         -68.471626     -185.292389      -66.989388
 N         -67.704407     -186.168610      -66.980385
 H         -69.763031     -184.688034      -64.537292
 H         -69.151413     -184.504547      -66.913910
 C         -69.679100     -185.130692      -63.497337
 C         -70.847679     -185.154694      -62.506866
 C         -68.328979     -185.721420      -63.153503
 C         -70.348457     -185.395645      -61.090618
 C         -68.209663     -186.413727      -61.722790
 C         -69.562202     -186.642044      -61.013603
 H         -71.568542     -185.952026      -62.849663
 H         -71.190659     -184.121094      -62.670860
 H         -68.081306     -186.610855      -63.880161
 H         -67.429306     -185.012909      -63.283951
 H         -71.238991     -185.509659      -60.453232
 H         -69.719383     -184.501694      -60.829266
 H         -67.521149     -185.850250      -61.044682
 H         -67.658371     -187.375900      -62.018757
 H         -69.948669     -187.588837      -61.493088
 H         -69.348694     -187.039581      -60.027355
