20
 generated by VMD
 C         -27.577408      -81.153557      -27.412395
 N         -28.637850      -81.565346      -27.601994
 H         -30.152582      -83.370995      -25.493004
 H         -26.551161      -80.687965      -27.167662
 C         -30.808498      -84.039558      -24.900732
 C         -30.502235      -84.088181      -23.468269
 C         -31.311378      -85.288696      -25.505632
 C         -31.637648      -84.615929      -22.657616
 C         -32.613964      -85.648468      -24.817434
 C         -32.420277      -85.886269      -23.282372
 H         -30.341692      -83.008644      -23.255413
 H         -29.642935      -84.727638      -23.397970
 H         -31.591940      -85.176224      -26.532543
 H         -30.525316      -86.043709      -25.349783
 H         -32.329529      -83.810944      -22.423006
 H         -31.381294      -84.943092      -21.670361
 H         -33.060085      -86.447525      -25.398571
 H         -33.205044      -84.783897      -25.062908
 H         -33.402012      -86.056404      -22.879105
 H         -31.796545      -86.846657      -23.141195
