20
 generated by VMD
 C         -33.644436      -96.095848      -25.342661
 N         -33.864826      -96.963928      -26.064564
 H         -34.692844      -94.294189      -27.358852
 H         -33.578503      -95.106064      -24.768072
 C         -34.792938      -93.975174      -28.405186
 C         -36.049820      -94.369675      -29.240713
 C         -33.482483      -93.608658      -29.091148
 C         -36.133030      -93.556839      -30.553766
 C         -33.792038      -92.761826      -30.292747
 C         -34.838150      -93.394653      -31.222307
 H         -36.984707      -94.276466      -28.632191
 H         -35.970024      -95.370613      -29.553558
 H         -32.938393      -93.057632      -28.281223
 H         -32.907463      -94.477310      -29.380198
 H         -36.506878      -92.546501      -30.329659
 H         -36.946182      -93.939667      -31.111589
 H         -32.844944      -92.626511      -30.952082
 H         -33.969551      -91.749695      -30.030014
 H         -35.171467      -92.591278      -31.891041
 H         -34.546062      -94.299545      -31.790264
