20
 generated by VMD
 C         -61.260502     -154.842422      -53.695312
 N         -61.600777     -154.900543      -52.635036
 H         -57.776028     -155.294022      -52.219704
 H         -60.933739     -154.742920      -54.688190
 C         -57.125515     -154.551971      -51.785175
 C         -57.425194     -154.135193      -50.379726
 C         -55.853046     -154.123398      -52.415062
 C         -56.204414     -154.590393      -49.642120
 C         -54.669529     -154.505051      -51.582211
 C         -54.769920     -154.139633      -50.197662
 H         -58.286407     -154.774902      -50.024876
 H         -57.590603     -153.052170      -50.304554
 H         -55.645012     -154.388458      -53.419064
 H         -55.979305     -153.020477      -52.509190
 H         -56.121315     -155.699646      -49.550495
 H         -56.326405     -154.259079      -48.555199
 H         -53.804501     -154.090210      -52.082756
 H         -54.398865     -155.612503      -51.563099
 H         -53.869995     -154.727325      -49.792774
 H         -54.698170     -153.092972      -50.100712
