20
 generated by VMD
 C         -70.142250     -181.378937      -62.766247
 N         -71.096817     -180.888901      -63.211597
 H         -67.341087     -181.755798      -60.703640
 H         -69.233627     -181.807343      -62.431595
 C         -66.718559     -180.840408      -60.753574
 C         -65.278419     -181.117294      -60.516060
 C         -67.371361     -179.522644      -60.534786
 C         -64.373177     -179.928879      -60.657242
 C         -66.303955     -178.465485      -61.045330
 C         -65.020744     -178.677567      -60.248100
 H         -65.033722     -181.849075      -61.281136
 H         -65.115440     -181.638474      -59.602192
 H         -68.391281     -179.271255      -61.125519
 H         -67.588295     -179.387238      -59.423180
 H         -63.928944     -179.626648      -61.653675
 H         -63.462978     -180.060669      -59.903069
 H         -66.690079     -177.458160      -60.891006
 H         -66.181725     -178.452866      -62.127781
 H         -64.475159     -177.683594      -60.572563
 H         -65.225952     -178.667496      -59.190872
