20
 generated by VMD
 C         -36.620148      -98.222618      -26.509628
 N         -37.689575      -98.346214      -26.903801
 H         -36.503963      -96.365524      -28.761555
 H         -35.596828      -98.052116      -26.034344
 C         -35.676102      -96.072182      -29.439604
 C         -35.462532      -97.014664      -30.665070
 C         -34.462402      -95.356133      -29.134312
 C         -35.066269      -96.031616      -31.808542
 C         -34.034035      -94.404472      -30.236938
 C         -33.849529      -95.161987      -31.592934
 H         -36.334496      -97.637138      -30.862028
 H         -34.616047      -97.642853      -30.472609
 H         -34.800915      -94.763123      -28.291838
 H         -33.692116      -96.045097      -28.699131
 H         -35.862709      -95.320190      -31.947838
 H         -35.120419      -96.629990      -32.710854
 H         -33.107903      -94.011444      -29.974113
 H         -34.841331      -93.613800      -30.331429
 H         -33.772903      -94.555962      -32.527451
 H         -33.022568      -95.713760      -31.724140
