20
 generated by VMD
 C         -50.820522     -129.601944      -45.299854
 N         -50.948135     -129.680664      -44.128109
 H         -49.005589     -128.874603      -42.244907
 H         -50.766438     -129.689438      -46.398575
 C         -48.278339     -129.057663      -41.528366
 C         -47.921928     -130.531250      -41.235241
 C         -47.309772     -127.963898      -41.180809
 C         -46.455826     -130.820190      -41.315887
 C         -45.855625     -128.294861      -41.344482
 C         -45.663822     -129.701492      -40.750549
 H         -48.459213     -131.148987      -42.014927
 H         -48.253265     -130.821823      -40.297005
 H         -47.476460     -127.012108      -41.559605
 H         -47.455479     -127.790138      -40.032124
 H         -46.199890     -131.228226      -42.353577
 H         -46.039688     -131.722763      -40.797493
 H         -45.107525     -127.696785      -40.848343
 H         -45.469929     -128.407196      -42.369194
 H         -44.628735     -130.010605      -40.928680
 H         -45.826538     -129.619232      -39.643696
