20
 generated by VMD
 C         -69.090858     -180.317535      -59.436768
 N         -68.541985     -180.777634      -60.358265
 H         -67.236694     -177.527817      -59.666470
 H         -69.517036     -179.763306      -58.651588
 C         -66.413826     -176.713150      -59.890949
 C         -66.011414     -176.564545      -61.355743
 C         -65.276726     -177.058441      -58.952072
 C         -64.849106     -175.615921      -61.530869
 C         -64.204346     -176.030121      -59.181976
 C         -63.680256     -175.999878      -60.649220
 H         -66.913513     -176.144516      -61.843719
 H         -65.776680     -177.503265      -61.864235
 H         -65.501984     -177.140411      -57.864040
 H         -64.841087     -177.990952      -59.187698
 H         -65.220970     -174.496429      -61.441322
 H         -64.495918     -175.629868      -62.557304
 H         -63.333427     -176.175674      -58.593956
 H         -64.601471     -175.022339      -58.895103
 H         -62.698475     -175.459244      -60.728466
 H         -63.426838     -177.013519      -60.872391
