20
 generated by VMD
 C         -37.952854     -114.169029      -35.336315
 N         -38.573166     -115.131073      -35.132004
 H         -41.402367     -114.990372      -36.472462
 H         -37.247616     -113.353386      -35.537735
 C         -42.410816     -115.027153      -36.808079
 C         -42.899342     -114.944290      -38.205044
 C         -43.519367     -114.964653      -35.733368
 C         -44.066994     -115.867233      -38.460613
 C         -44.776787     -115.684998      -36.108620
 C         -45.187485     -115.433464      -37.520973
 H         -42.120655     -115.309525      -38.874416
 H         -43.206680     -113.925995      -38.577152
 H         -43.048397     -115.108620      -34.733856
 H         -43.746689     -113.874550      -35.606838
 H         -43.748264     -116.895447      -38.220810
 H         -44.387619     -115.841820      -39.516193
 H         -45.644470     -115.281990      -35.531258
 H         -44.603416     -116.676132      -35.659481
 H         -45.995975     -116.072136      -37.777710
 H         -45.267574     -114.368752      -37.919197
