20
 generated by VMD
 C         -23.397320      -53.000645      -12.753057
 N         -22.984072      -52.590443      -13.813018
 H         -20.449123      -54.966122      -13.617465
 H         -23.824976      -53.359283      -11.788258
 C         -19.447199      -54.650631      -13.939510
 C         -19.047462      -53.248116      -14.010814
 C         -18.320234      -55.587337      -14.076080
 C         -17.636972      -52.838451      -13.434301
 C         -17.262875      -55.329308      -13.030582
 C         -16.614117      -53.963257      -13.328701
 H         -19.866159      -52.570595      -13.638257
 H         -19.059008      -52.953869      -15.132724
 H         -18.776196      -56.561192      -14.003875
 H         -17.862988      -55.537670      -15.071218
 H         -17.883196      -52.497437      -12.420870
 H         -17.215269      -51.961143      -13.932229
 H         -16.574739      -56.151936      -13.155089
 H         -17.635660      -55.336952      -11.989516
 H         -15.838180      -53.755592      -12.523408
 H         -16.026154      -53.925648      -14.257191
