20
 generated by VMD
 C         -68.861710     -188.662796      -67.020828
 N         -68.109299     -189.455643      -66.658005
 H         -68.256691     -187.721252      -63.366047
 H         -69.644798     -188.097122      -67.389359
 C         -69.340027     -187.929688      -63.275684
 C         -69.696487     -189.416046      -63.456425
 C         -70.506851     -186.954453      -62.860863
 C         -70.898117     -189.604248      -64.274078
 C         -71.799751     -187.274185      -63.736427
 C         -72.100708     -188.765625      -63.840260
 H         -69.803230     -189.925781      -62.540314
 H         -68.887764     -189.863937      -63.927414
 H         -70.674141     -187.097488      -61.796059
 H         -70.207390     -185.992935      -63.082115
 H         -71.184891     -190.625595      -64.217598
 H         -70.722343     -189.387650      -65.356606
 H         -71.438217     -186.872040      -64.722336
 H         -72.688858     -186.794357      -63.372559
 H         -72.490906     -189.289719      -62.972172
 H         -72.760910     -188.776566      -64.651291
