20
 generated by VMD
 C         -58.681366     -160.103928      -57.007912
 N         -58.459541     -159.948349      -58.123741
 H         -58.653046     -162.671631      -54.980217
 H         -58.975208     -160.294449      -55.979404
 C         -59.425060     -162.295853      -54.291164
 C         -59.168987     -162.390152      -52.802711
 C         -60.916775     -162.545120      -54.654984
 C         -60.171894     -162.129181      -51.738365
 C         -61.967934     -161.896378      -53.613270
 C         -61.588154     -162.467850      -52.249382
 H         -58.252201     -161.786987      -52.504044
 H         -58.797913     -163.385361      -52.707226
 H         -61.073715     -162.060013      -55.642567
 H         -61.135044     -163.623795      -54.657677
 H         -60.320713     -161.106018      -51.482025
 H         -59.898346     -162.651276      -50.698040
 H         -62.894360     -162.229858      -54.135208
 H         -62.094307     -160.762054      -53.561794
 H         -62.356750     -162.143463      -51.469955
 H         -61.685253     -163.530350      -52.257172
