20
 generated by VMD
 C         -47.754639     -136.832153      -46.093307
 N         -47.128181     -136.575974      -46.976524
 H         -50.577682     -136.026505      -45.029835
 H         -48.482712     -137.194565      -45.402710
 C         -51.061886     -136.949844      -44.918423
 C         -51.356819     -137.936371      -46.028381
 C         -52.042637     -136.771790      -43.861725
 C         -52.138290     -139.106308      -45.590603
 C         -52.688725     -138.069382      -43.414207
 C         -53.262348     -138.899979      -44.586403
 H         -50.422462     -138.306381      -46.552536
 H         -51.834042     -137.411530      -46.844418
 H         -51.402431     -136.372131      -43.027653
 H         -52.696053     -135.997299      -44.197586
 H         -51.469845     -139.735504      -45.033360
 H         -52.475979     -139.504974      -46.567928
 H         -53.601387     -137.881943      -42.690289
 H         -51.916241     -138.695572      -43.009823
 H         -53.608154     -139.824371      -44.405060
 H         -54.088581     -138.337036      -45.067501
