20
 generated by VMD
 C         -50.159927     -131.096237      -46.556400
 N         -50.286247     -131.485275      -47.646008
 H         -48.327915     -131.863373      -44.017460
 H         -49.676239     -131.091141      -45.562382
 C         -48.873177     -132.232941      -43.191654
 C         -49.476616     -133.632538      -43.183170
 C         -48.722149     -131.612930      -41.886024
 C         -48.757397     -134.540802      -42.252144
 C         -47.866550     -132.503937      -41.015041
 C         -48.486362     -133.885010      -40.827271
 H         -49.656960     -134.007812      -44.199318
 H         -50.527725     -133.509201      -42.791210
 H         -48.251060     -130.660355      -42.065636
 H         -49.825455     -131.401871      -41.648956
 H         -47.759609     -134.775497      -42.675404
 H         -49.337292     -135.498932      -42.209518
 H         -47.825672     -131.895599      -40.020184
 H         -46.898899     -132.582352      -41.475025
 H         -47.927998     -134.443573      -40.105690
 H         -49.433979     -133.741226      -40.317223
