20
 generated by VMD
 C         -57.107800     -150.989868      -48.181381
 N         -58.258011     -151.026611      -48.566448
 H         -54.259548     -148.783340      -47.271580
 H         -56.041916     -150.818069      -47.879864
 C         -54.203732     -148.548172      -48.314514
 C         -53.519497     -149.383987      -49.393654
 C         -54.579132     -147.173386      -48.734673
 C         -54.386776     -149.357132      -50.678932
 C         -55.303982     -147.052643      -50.177341
 C         -54.551865     -147.899597      -51.241787
 H         -53.614231     -150.470871      -49.020405
 H         -52.492790     -149.010132      -49.358154
 H         -55.212601     -146.730072      -48.014336
 H         -53.710468     -146.597641      -48.838665
 H         -55.447460     -149.675766      -50.476219
 H         -53.927502     -150.009964      -51.412537
 H         -55.169342     -146.012772      -50.388313
 H         -56.322342     -147.377792      -50.136879
 H         -55.044674     -147.855835      -52.239029
 H         -53.475792     -147.540710      -51.248821
