20
 generated by VMD
 C         -18.071836      -48.554909       -7.377934
 N         -18.258661      -48.634769       -6.269877
 H         -16.398748      -48.163464      -10.188677
 H         -16.190798      -49.166336      -11.589223
 C         -16.354961      -48.085754      -11.302482
 C         -15.236113      -47.155426      -11.713174
 C         -17.733309      -47.624794      -11.799549
 C         -15.340058      -46.632507      -13.195130
 C         -17.636208      -47.480389      -13.309831
 C         -16.750923      -46.339142      -13.633240
 H         -14.255028      -47.582249      -11.502547
 H         -15.134039      -46.219616      -11.130791
 H         -18.464348      -48.391659      -11.512823
 H         -17.962269      -46.662769      -11.357712
 H         -14.921382      -47.379719      -13.895082
 H         -14.760930      -45.690655      -13.206140
 H         -18.659266      -47.279503      -13.838693
 H         -17.311281      -48.446186      -13.694520
 H         -16.776951      -46.188461      -14.730545
 H         -17.134911      -45.430248      -13.099010
