20
 generated by VMD
 C         -10.942216      -33.508514       -9.454799
 N         -10.707143      -32.693844       -8.730886
 H         -12.004681      -35.920990       -7.910316
 H         -12.419058      -35.416710       -6.359173
 C         -12.543412      -36.240204       -7.020733
 C         -11.765511      -37.417126       -6.396419
 C         -14.039647      -36.441650       -7.140865
 C         -12.417512      -37.987255       -5.156376
 C         -14.648424      -37.187389       -6.009037
 C         -13.842177      -38.393417       -5.574915
 H         -10.726265      -37.086319       -6.214874
 H         -11.635209      -38.269077       -7.134519
 H         -14.533324      -35.468510       -7.392629
 H         -14.164947      -37.035912       -8.031157
 H         -12.550945      -37.281712       -4.298116
 H         -11.858358      -38.823017       -4.664022
 H         -15.689321      -37.584534       -6.317599
 H         -14.748965      -36.540440       -5.178329
 H         -14.264213      -38.838905       -4.693664
 H         -13.851334      -39.103886       -6.429227
