20
 generated by VMD
 C         -69.776588     -183.250748      -65.510223
 N         -70.442413     -182.406555      -66.004997
 H         -67.121666     -184.319885      -62.973595
 H         -69.138306     -184.019638      -64.998650
 C         -67.462662     -183.727554      -62.113182
 C         -67.858543     -184.195984      -60.767242
 C         -67.705017     -182.287354      -62.480515
 C         -67.144806     -183.363785      -59.780075
 C         -66.852913     -181.558060      -61.479282
 C         -67.217018     -181.901276      -60.056988
 H         -67.695435     -185.233719      -60.746258
 H         -68.880684     -184.203522      -60.692745
 H         -67.502945     -182.105011      -63.504688
 H         -68.640739     -181.778412      -62.149799
 H         -66.000748     -183.583939      -59.680725
 H         -67.495972     -183.584198      -58.665749
 H         -67.109978     -180.504868      -61.723141
 H         -65.782448     -181.722641      -61.572464
 H         -66.566544     -181.395218      -59.357315
 H         -68.224022     -181.474823      -59.770370
