20
 generated by VMD
 C         -19.453102      -61.542553      -16.520456
 N         -19.886196      -60.473148      -16.258749
 H         -21.978716      -62.665165      -18.358660
 H         -19.077143      -62.438457      -16.965761
 C         -22.848179      -63.055237      -17.848961
 C         -24.059549      -63.357372      -18.705288
 C         -23.031185      -63.077190      -16.367403
 C         -24.632387      -64.647667      -18.148741
 C         -23.525400      -64.487785      -15.987424
 C         -24.911451      -64.798058      -16.598755
 H         -23.652418      -63.552349      -19.736856
 H         -24.803621      -62.460331      -18.775301
 H         -22.160645      -62.753826      -15.740116
 H         -23.867353      -62.368446      -16.043938
 H         -23.874676      -65.451462      -18.332853
 H         -25.539623      -64.902588      -18.765570
 H         -23.669495      -64.564423      -14.928008
 H         -22.846441      -65.255234      -16.356388
 H         -25.118765      -65.826096      -16.376013
 H         -25.638712      -64.070747      -16.128605
