20
 generated by VMD
 C         -21.067995      -52.185841       -9.640065
 N         -21.375601      -52.567860      -10.751349
 H         -19.471012      -50.154366      -11.924774
 H         -20.935034      -52.204971       -8.718046
 C         -18.423191      -50.206387      -12.317021
 C         -17.888821      -51.512432      -12.745654
 C         -17.501223      -49.062279      -12.362616
 C         -16.918848      -51.305641      -13.951778
 C         -16.293709      -49.028160      -13.335253
 C         -15.737921      -50.396454      -13.639655
 H         -18.709864      -52.189938      -12.960058
 H         -17.345030      -52.091579      -11.924636
 H         -18.111916      -48.200356      -12.707379
 H         -17.081831      -48.867462      -11.372465
 H         -17.540716      -50.795296      -14.728758
 H         -16.526661      -52.255444      -14.345215
 H         -15.533317      -48.245502      -13.003164
 H         -16.694765      -48.679859      -14.299927
 H         -15.092407      -50.406372      -14.489820
 H         -15.122760      -50.799122      -12.868285
