20
 generated by VMD
 C         -79.489288     -205.070038      -70.929657
 N         -80.578392     -205.421463      -70.894257
 H         -77.066078     -203.265686      -69.254150
 H         -78.493774     -204.810974      -70.823982
 C         -75.983978     -203.105347      -69.525200
 C         -75.470253     -201.926300      -70.273537
 C         -75.095901     -204.182755      -69.066544
 C         -74.018524     -201.723465      -70.478249
 C         -73.548294     -203.875214      -69.081306
 C         -73.061790     -202.949646      -70.205040
 H         -75.980133     -201.097977      -69.737938
 H         -75.921066     -201.998688      -71.270760
 H         -75.418655     -204.548447      -68.103317
 H         -75.163116     -204.969849      -69.823883
 H         -73.629501     -200.968552      -69.762962
 H         -73.792877     -201.256332      -71.491165
 H         -73.026627     -204.812424      -69.067139
 H         -73.368240     -203.281372      -68.038879
 H         -71.984840     -202.601562      -69.946068
 H         -73.053032     -203.558578      -71.131142
