20
 generated by VMD
 C         -40.839127     -102.793335      -34.868671
 N         -41.466900     -102.537201      -35.814724
 H         -39.852207     -104.799652      -32.643623
 H         -40.069336     -102.946136      -34.180424
 C         -38.871082     -104.733032      -32.395313
 C         -37.579906     -104.043854      -32.976330
 C         -38.632610     -105.924858      -31.464724
 C         -36.451752     -104.043221      -31.947901
 C         -37.459576     -105.927025      -30.503586
 C         -36.245724     -105.401711      -31.300694
 H         -37.736210     -102.993599      -33.314129
 H         -37.332752     -104.756081      -33.816471
 H         -39.493355     -106.177773      -30.812817
 H         -38.508045     -106.683388      -32.209137
 H         -36.872349     -103.417282      -31.178776
 H         -35.535622     -103.675545      -32.364906
 H         -37.290932     -106.909576      -30.196634
 H         -37.771393     -105.396721      -29.613543
 H         -35.495964     -105.236732      -30.575165
 H         -35.841412     -106.233391      -31.976368
