20
 generated by VMD
 C          -1.658200      -14.105740        2.140621
 N          -1.902025      -13.603668        1.173667
 H          -3.688545      -17.136457        1.291685
 H          -4.328094      -17.162827       -0.420094
 C          -4.565119      -17.069942        0.645335
 C          -5.266376      -15.670075        0.724750
 C          -5.532280      -18.249983        0.918508
 C          -6.639511      -15.657007       -0.055110
 C          -6.785813      -18.132940        0.056282
 C          -7.534914      -16.820663        0.214844
 H          -4.701897      -14.790674        0.438536
 H          -5.573788      -15.512630        1.763732
 H          -4.987944      -19.131237        0.630150
 H          -5.867915      -18.144817        1.894688
 H          -6.411563      -15.509713       -1.149584
 H          -7.089375      -14.690988        0.176001
 H          -7.439480      -19.038450        0.301520
 H          -6.571599      -18.220863       -1.035064
 H          -8.309896      -16.780542       -0.572221
 H          -8.099574      -16.809978        1.160305
