20
 generated by VMD
 C         -38.341419     -112.750893      -36.049442
 N         -37.429367     -112.310387      -36.659958
 H         -41.269325     -114.955276      -34.755882
 H         -38.998665     -113.397346      -35.510422
 C         -42.085743     -114.639839      -35.384350
 C         -42.033516     -114.576660      -36.843037
 C         -43.208244     -113.918121      -34.711262
 C         -43.421078     -114.878464      -37.546768
 C         -44.569469     -114.099205      -35.383595
 C         -44.479649     -113.923409      -36.954990
 H         -41.321384     -115.281967      -37.359043
 H         -41.673443     -113.610641      -37.266808
 H         -43.136829     -114.152229      -33.622787
 H         -43.054871     -112.826134      -34.951164
 H         -43.628635     -115.998245      -37.487648
 H         -43.219067     -114.681046      -38.588242
 H         -45.076019     -113.157295      -35.148155
 H         -44.901695     -115.091980      -35.083721
 H         -45.460464     -114.129349      -37.353855
 H         -44.361004     -112.877251      -37.181202
