20
 generated by VMD
 C         -29.348001      -89.722984      -25.192921
 N         -29.345581      -88.701149      -25.802963
 H         -31.780901      -90.891014      -27.516659
 H         -29.188147      -90.655518      -24.774513
 C         -32.814163      -90.479698      -27.593683
 C         -33.914059      -90.749962      -26.583519
 C         -32.907681      -89.401459      -28.600565
 C         -34.604454      -89.466660      -26.208437
 C         -33.657696      -88.114731      -28.107267
 C         -34.936733      -88.567711      -27.412422
 H         -33.509514      -91.264565      -25.684948
 H         -34.595715      -91.458397      -27.033791
 H         -32.018219      -89.082619      -29.130434
 H         -33.579800      -89.746140      -29.451103
 H         -33.891869      -88.859894      -25.576370
 H         -35.633034      -89.611420      -25.665371
 H         -33.811443      -87.398766      -28.967524
 H         -32.962902      -87.666939      -27.417942
 H         -35.540226      -87.768074      -27.290693
 H         -35.610176      -89.052925      -28.120726
