20
 generated by VMD
 C         -68.774628     -188.981934      -67.153389
 N         -67.732719     -189.372070      -66.784203
 H         -68.876442     -187.708038      -64.166183
 H         -69.809380     -188.790649      -67.504089
 C         -69.538055     -188.122086      -63.377064
 C         -69.845413     -189.550156      -63.472530
 C         -70.592453     -187.214951      -62.712364
 C         -71.126076     -189.687454      -64.263603
 C         -71.732460     -187.195892      -63.755238
 C         -72.200546     -188.663086      -63.881458
 H         -69.960129     -190.046997      -62.487816
 H         -68.979034     -189.963852      -63.957226
 H         -70.888206     -187.641953      -61.747120
 H         -70.184685     -186.270523      -62.590134
 H         -71.541611     -190.658249      -64.180115
 H         -70.917046     -189.511963      -65.355103
 H         -71.413155     -187.022858      -64.818840
 H         -72.502319     -186.546707      -63.377991
 H         -72.536804     -188.944489      -62.849102
 H         -72.925301     -188.816895      -64.564774
