20
 generated by VMD
 C         -28.504185      -74.070847      -18.707712
 N         -29.379961      -73.561668      -18.169640
 H         -25.807159      -72.477028      -18.871025
 H         -27.476564      -74.563225      -19.029751
 C         -25.556213      -72.338486      -19.947590
 C         -24.783722      -73.358719      -20.720985
 C         -25.802202      -70.992188      -20.478523
 C         -25.495129      -73.477974      -22.032099
 C         -26.230505      -71.068474      -21.944647
 C         -25.422384      -72.096542      -22.662800
 H         -24.862034      -74.322037      -20.317606
 H         -23.719152      -73.186882      -20.750025
 H         -26.669100      -70.442711      -20.010746
 H         -24.929821      -70.405594      -20.326334
 H         -26.514544      -73.847969      -21.920954
 H         -25.020279      -74.160141      -22.735979
 H         -26.043215      -70.145409      -22.328842
 H         -27.266251      -71.362923      -21.930796
 H         -26.048019      -72.181297      -23.618505
 H         -24.377584      -71.839973      -22.971506
