20
 generated by VMD
 C          -7.067126      -23.421663        2.047258
 N          -7.269969      -22.358549        1.830555
 H          -8.646962      -23.405777       -1.090937
 H          -9.336740      -22.412054       -2.330691
 C          -8.387043      -22.675968       -1.854523
 C          -7.472843      -23.413406       -2.934048
 C          -7.677094      -21.433865       -1.259604
 C          -6.979756      -22.449884       -4.024527
 C          -7.247144      -20.527027       -2.384109
 C          -6.337695      -21.256958       -3.371354
 H          -7.938784      -24.181997       -3.471484
 H          -6.655329      -23.871819       -2.376377
 H          -8.413678      -20.945055       -0.673220
 H          -6.793429      -21.590780       -0.632262
 H          -7.873235      -22.203037       -4.668267
 H          -6.148296      -22.973400       -4.516107
 H          -6.640565      -19.777000       -1.904174
 H          -8.086256      -20.059528       -2.891465
 H          -6.078146      -20.520126       -4.095638
 H          -5.424524      -21.547123       -2.899856
