20
 generated by VMD
 C         -22.226429      -53.017860      -12.444576
 N         -22.925158      -52.499397      -13.250649
 H         -20.172832      -54.236603      -14.472540
 H         -21.655590      -53.640713      -12.028224
 C         -19.287424      -53.926765      -13.959519
 C         -18.920542      -52.564754      -13.579409
 C         -18.556774      -55.145641      -13.389422
 C         -17.502193      -52.269032      -14.060999
 C         -17.272623      -54.622883      -12.813733
 C         -16.609148      -53.394772      -13.487079
 H         -19.104315      -52.398571      -12.507675
 H         -19.672897      -51.813927      -14.048397
 H         -19.024282      -55.680195      -12.500994
 H         -18.422455      -55.859379      -14.188362
 H         -17.165525      -51.245972      -13.821644
 H         -17.498135      -52.387871      -15.179664
 H         -16.520493      -55.478687      -12.601284
 H         -17.568129      -54.260109      -11.844144
 H         -15.953886      -52.963531      -12.721478
 H         -15.921432      -53.759979      -14.187587
