20
 generated by VMD
 C         -29.095398      -73.442337      -19.220892
 N         -29.612568      -74.310852      -18.692055
 H         -25.468290      -72.965996      -18.686298
 H         -28.481300      -72.621407      -19.579515
 C         -25.539656      -72.843399      -19.792036
 C         -24.864534      -73.838493      -20.761148
 C         -25.676130      -71.415268      -20.436167
 C         -25.564405      -73.882820      -22.167698
 C         -26.292562      -71.464371      -21.811510
 C         -25.532469      -72.414970      -22.767969
 H         -24.853739      -74.870255      -20.274475
 H         -23.756218      -73.452469      -20.821270
 H         -26.401827      -70.770081      -19.919712
 H         -24.708693      -70.977730      -20.375315
 H         -26.572390      -74.198959      -22.026608
 H         -25.114683      -74.585808      -22.850153
 H         -26.279230      -70.435982      -22.312140
 H         -27.418482      -71.795105      -21.792109
 H         -26.172607      -72.479004      -23.672871
 H         -24.479778      -72.173073      -23.103069
