20
 generated by VMD
 C         -41.978138     -101.533241      -33.011124
 N         -41.247009     -101.615967      -33.886509
 H         -38.733486     -103.228676      -32.761749
 H         -42.670135     -101.059029      -32.253128
 C         -37.834755     -103.467468      -32.170204
 C         -36.606064     -103.398003      -33.084881
 C         -37.693371     -103.716454      -30.719496
 C         -35.619339     -102.507584      -32.352642
 C         -36.386795     -103.118034      -30.048130
 C         -35.243778     -103.102791      -30.990337
 H         -36.777222     -103.100487      -34.160217
 H         -36.114021     -104.384323      -33.083015
 H         -38.414516     -103.245842      -29.982117
 H         -37.702675     -104.746803      -30.467710
 H         -36.087181     -101.533173      -32.217133
 H         -34.798187     -102.382355      -33.004608
 H         -36.284275     -103.658546      -29.182844
 H         -36.496059     -102.031891      -29.731596
 H         -34.402100     -102.486153      -30.750183
 H         -34.814751     -104.156662      -31.074585
