20
 generated by VMD
 C         -38.437946     -108.926178      -36.635540
 N         -37.289898     -108.814247      -36.529156
 H         -41.739681     -109.829422      -36.259521
 H         -39.434982     -109.223801      -36.852585
 C         -41.969521     -110.555336      -35.542465
 C         -41.667946     -112.019020      -35.845299
 C         -42.771278     -110.289322      -34.410610
 C         -40.701862     -112.388229      -34.691689
 C         -41.943535     -110.686317      -33.203415
 C         -41.380939     -112.148407      -33.373577
 H         -41.173458     -111.923630      -36.853069
 H         -42.626652     -112.495743      -35.864136
 H         -42.985111     -109.191566      -34.503181
 H         -43.822647     -110.748909      -34.552608
 H         -39.857094     -111.596138      -34.830055
 H         -40.352688     -113.368797      -34.697994
 H         -42.499985     -110.491852      -32.237442
 H         -40.997883     -110.024025      -33.164745
 H         -40.686928     -112.275658      -32.574230
 H         -42.205437     -112.948395      -33.062122
