20
 generated by VMD
 C         -32.606350      -93.073532      -25.636919
 N         -32.825409      -94.200470      -25.635942
 H         -33.363636      -94.568329      -28.518950
 H         -32.231594      -92.100624      -25.637411
 C         -34.188190      -94.040619      -29.042124
 C         -35.448490      -93.616386      -28.427237
 C         -33.835178      -93.314156      -30.332035
 C         -35.248371      -92.088661      -27.917372
 C         -33.475899      -91.815491      -29.943546
 C         -34.654099      -91.256638      -29.105558
 H         -35.785488      -94.222610      -27.606159
 H         -36.321030      -93.577019      -29.087254
 H         -32.974438      -93.805016      -30.842113
 H         -34.676464      -93.257874      -31.015814
 H         -34.691467      -91.964630      -26.933062
 H         -36.317150      -91.821014      -27.757740
 H         -33.387280      -91.144585      -30.808811
 H         -32.445911      -91.755280      -29.441795
 H         -34.375439      -90.363731      -28.612251
 H         -35.423805      -91.247032      -29.888958
