20
 generated by VMD
 C         -40.805813     -100.868973      -32.722294
 N         -41.559425     -101.149338      -31.867048
 H         -38.300098     -102.474747      -32.601883
 H         -40.204914     -100.479057      -33.605213
 C         -37.446404     -102.771294      -32.033798
 C         -36.073128     -102.784393      -32.778198
 C         -37.326321     -102.776512      -30.532515
 C         -35.322872     -101.462685      -32.400986
 C         -36.248085     -101.576889      -30.042921
 C         -34.971001     -101.497459      -30.923487
 H         -36.082096     -102.915382      -33.851181
 H         -35.513397     -103.633446      -32.350567
 H         -38.379028     -102.511154      -30.103117
 H         -37.038387     -103.760811      -30.120871
 H         -35.942249     -100.550735      -32.585880
 H         -34.470303     -101.445473      -33.044292
 H         -35.908253     -101.640709      -29.057590
 H         -36.836998     -100.636078      -30.176682
 H         -34.341770     -100.709007      -30.454054
 H         -34.365715     -102.376053      -30.720236
