20
 generated by VMD
 C         -70.364380     -182.403656      -63.690254
 N         -69.505440     -182.820343      -64.306976
 H         -68.459663     -180.401123      -62.371052
 H         -71.202095     -182.031631      -63.188488
 C         -67.831406     -180.514069      -61.549694
 C         -67.514206     -181.873672      -61.003769
 C         -67.251404     -179.304382      -60.788502
 C         -66.039780     -182.111511      -61.087631
 C         -65.756935     -179.551712      -60.563141
 C         -65.296204     -181.072739      -60.140194
 H         -67.952576     -182.625671      -61.707813
 H         -68.053909     -182.022186      -60.105583
 H         -67.362045     -178.297989      -61.384205
 H         -67.892761     -179.233368      -59.867744
 H         -65.617767     -181.882141      -62.174267
 H         -65.815636     -183.244812      -60.784859
 H         -65.427597     -178.859299      -59.794559
 H         -65.379860     -179.305481      -61.541313
 H         -64.208916     -181.240356      -60.165314
 H         -65.684776     -181.182358      -59.148098
