20
 generated by VMD
 C         -13.487824      -30.669361       -8.344653
 N         -13.385047      -30.068222       -9.257542
 H         -11.050051      -31.580824       -5.765938
 H         -11.203792      -31.929869       -4.005188
 C         -10.975130      -32.395710       -5.042886
 C          -9.587327      -32.876877       -4.905892
 C         -12.052505      -33.467834       -5.280741
 C          -9.526795      -34.041756       -3.993534
 C         -11.894815      -34.646240       -4.317894
 C         -10.494123      -35.197701       -4.332496
 H          -9.009713      -32.029980       -4.565604
 H          -9.193126      -33.050598       -5.928121
 H         -13.052073      -33.050365       -5.305374
 H         -11.889808      -33.867786       -6.284874
 H          -9.691958      -33.757854       -2.959223
 H          -8.507309      -34.355175       -3.932867
 H         -12.608378      -35.393951       -4.577068
 H         -12.160320      -34.407887       -3.285156
 H         -10.331409      -35.980991       -3.609118
 H         -10.282845      -35.553791       -5.351092
