20
 generated by VMD
 C         -62.880314     -173.564667      -55.582764
 N         -63.454674     -174.185501      -54.743156
 H         -61.556961     -171.755417      -58.622734
 H         -62.290287     -172.915665      -56.236389
 C         -62.477909     -171.201431      -58.740879
 C         -62.725571     -170.019852      -57.715736
 C         -63.843605     -171.803070      -59.141041
 C         -63.740704     -168.941391      -58.348648
 C         -64.849663     -170.723862      -59.646141
 C         -65.136749     -169.486893      -58.774517
 H         -61.694904     -169.613113      -57.398190
 H         -63.130230     -170.512711      -56.882694
 H         -63.539906     -172.505203      -59.859074
 H         -64.202385     -172.288727      -58.188671
 H         -63.257313     -168.562469      -59.217403
 H         -63.929726     -168.055130      -57.721340
 H         -65.829597     -171.187027      -59.825462
 H         -64.482933     -170.430573      -60.613235
 H         -65.744690     -168.721863      -59.333660
 H         -65.788628     -169.853668      -57.893005
