20
 generated by VMD
 C         -72.752579     -198.651871      -65.716789
 N         -73.746712     -198.988251      -66.209389
 H         -70.923782     -196.213013      -67.550148
 H         -71.983833     -198.375488      -64.980522
 C         -71.994041     -196.237823      -67.785797
 C         -72.924225     -195.453720      -66.899086
 C         -72.390778     -196.991287      -69.025627
 C         -74.308365     -195.248260      -67.603386
 C         -73.889244     -197.364227      -69.043671
 C         -74.855957     -196.633224      -68.130188
 H         -72.429474     -194.487686      -66.676277
 H         -73.115318     -196.005692      -66.030296
 H         -72.377518     -196.185287      -69.746002
 H         -71.744354     -197.892670      -69.205551
 H         -74.306252     -194.467957      -68.410706
 H         -75.097694     -194.880615      -66.950317
 H         -73.923538     -198.464523      -68.937378
 H         -74.230522     -197.249939      -70.115021
 H         -75.909531     -196.566818      -68.700043
 H         -75.219612     -197.222885      -67.399727
