20
 generated by VMD
 C         -45.314518     -123.163994      -35.415283
 N         -45.824108     -124.231148      -35.259922
 H         -44.923191     -122.398239      -38.310055
 H         -44.816128     -122.264137      -35.668102
 C         -44.763115     -121.589722      -39.104301
 C         -43.406593     -121.421181      -39.676727
 C         -45.950272     -120.741737      -39.552265
 C         -43.322723     -120.865486      -41.000603
 C         -45.823589     -120.167564      -40.914867
 C         -44.419060     -119.798912      -41.315651
 H         -42.859653     -122.250458      -39.371567
 H         -42.907570     -120.664261      -38.977161
 H         -46.874508     -121.345238      -39.478481
 H         -46.136608     -119.930893      -38.919621
 H         -43.485703     -121.762512      -41.732822
 H         -42.352123     -120.572075      -41.402649
 H         -46.452110     -119.185570      -41.017548
 H         -46.349972     -120.955009      -41.533772
 H         -44.372952     -119.659370      -42.389671
 H         -44.162762     -118.932518      -40.756626
