20
 generated by VMD
 C          -1.987481      -13.390393        0.625773
 N          -1.635426      -13.130876        1.647840
 H          -3.520019      -16.842873        1.619509
 H          -3.901192      -16.543049       -0.032561
 C          -4.395273      -16.702982        0.935678
 C          -5.244620      -15.465700        1.460467
 C          -5.292256      -17.918175        0.941334
 C          -6.471411      -15.230510        0.488132
 C          -6.525393      -17.755877        0.124943
 C          -7.263540      -16.470152        0.478870
 H          -4.639087      -14.591567        1.422792
 H          -5.674897      -15.646858        2.474272
 H          -4.662006      -18.870480        0.537979
 H          -5.426241      -18.187325        2.060289
 H          -5.938323      -14.924623       -0.452305
 H          -7.073637      -14.383091        0.911762
 H          -7.183871      -18.613731        0.331453
 H          -6.251254      -17.825506       -0.955906
 H          -8.164485      -16.403864       -0.140325
 H          -7.603693      -16.598604        1.508909
