20
 generated by VMD
 C         -14.000819      -28.178202       -3.364961
 N         -14.048361      -27.227785       -3.965633
 H         -10.311212      -28.699118       -2.685322
 H         -10.131200      -27.367872       -3.612606
 C          -9.532293      -28.207413       -3.274816
 C          -9.026917      -29.209301       -4.323608
 C          -8.390589      -27.553442       -2.431072
 C          -7.775000      -28.752108       -5.149483
 C          -7.327829      -27.008301       -3.339972
 C          -6.726386      -28.114271       -4.278145
 H          -9.870101      -29.514496       -5.006687
 H          -8.676827      -30.103773       -3.899927
 H          -8.711203      -26.766930       -1.763927
 H          -8.000875      -28.251904       -1.688188
 H          -8.217072      -28.095621       -5.938880
 H          -7.305624      -29.652718       -5.639221
 H          -6.484928      -26.581192       -2.745683
 H          -7.693304      -26.213463       -3.934895
 H          -5.966873      -27.629221       -4.853704
 H          -6.264916      -28.891615       -3.634997
