20
 generated by VMD
 C         -15.221648      -46.914154       -6.254440
 N         -15.169421      -47.114025       -5.158767
 H         -15.959044      -46.148403       -9.725842
 H         -14.964131      -45.857243      -11.079552
 C         -16.030710      -45.897095      -10.747521
 C         -16.432896      -44.431168      -10.947528
 C         -16.811842      -46.958706      -11.576010
 C         -16.389757      -44.186691      -12.441366
 C         -16.810595      -46.640156      -13.128066
 C         -17.210974      -45.172985      -13.268087
 H         -15.635686      -43.867882      -10.489992
 H         -17.403292      -44.189724      -10.492430
 H         -16.324013      -47.913017      -11.469474
 H         -17.857641      -46.993702      -11.221653
 H         -15.400263      -44.284958      -12.872154
 H         -16.756552      -43.161903      -12.568531
 H         -17.511978      -47.249378      -13.636516
 H         -15.784091      -46.759548      -13.523510
 H         -17.218151      -44.861080      -14.298042
 H         -18.288210      -45.148678      -12.967001
