20
 generated by VMD
 C         -65.983292     -177.799133      -56.888916
 N         -66.696037     -176.917252      -57.190369
 H         -64.487839     -175.723282      -58.834694
 H         -65.276749     -178.629486      -56.745895
 C         -64.405243     -174.710770      -59.130791
 C         -65.661972     -173.880264      -59.105305
 C         -63.452072     -174.489471      -60.339497
 C         -65.179855     -172.483307      -58.997887
 C         -63.087700     -172.961624      -60.377903
 C         -64.396690     -172.044174      -60.165279
 H         -66.246323     -174.134445      -58.258236
 H         -66.285080     -173.965500      -60.066391
 H         -62.647045     -175.169830      -60.096195
 H         -63.986992     -174.866928      -61.257210
 H         -64.557861     -172.232986      -58.188137
 H         -66.009468     -171.831131      -58.911945
 H         -62.670219     -172.885101      -61.399353
 H         -62.403267     -172.606613      -59.620647
 H         -64.179947     -170.900497      -60.055813
 H         -64.962669     -172.158569      -61.064213
