20
 generated by VMD
 C         -21.750498      -52.421661      -11.327131
 N         -21.603310      -52.930561      -10.329855
 H         -19.900469      -51.174370      -14.003450
 H         -21.787428      -51.830112      -12.361968
 C         -18.903784      -51.222382      -13.749162
 C         -18.082439      -51.997730      -14.737688
 C         -18.401396      -51.060368      -12.355390
 C         -16.565584      -51.903126      -14.460875
 C         -16.932447      -51.096581      -12.060930
 C         -16.175617      -52.081226      -12.974873
 H         -18.381849      -51.601521      -15.744379
 H         -18.496763      -53.008762      -14.795253
 H         -18.810623      -50.130325      -11.853983
 H         -18.896513      -51.923157      -11.871421
 H         -16.211306      -50.896824      -14.772532
 H         -16.039352      -52.673454      -15.062572
 H         -16.757826      -51.291733      -10.994356
 H         -16.557367      -50.142262      -12.281179
 H         -15.099936      -51.944969      -12.905788
 H         -16.473442      -53.068886      -12.655902
