20
 generated by VMD
 C         -41.550152     -119.601288      -34.346188
 N         -41.489941     -120.255966      -35.273056
 H         -43.295414     -118.654518      -36.855793
 H         -41.706345     -118.900146      -33.548347
 C         -43.832020     -118.317032      -37.793926
 C         -42.955311     -118.335716      -38.984962
 C         -45.188606     -117.600365      -37.761562
 C         -43.763618     -118.643745      -40.266235
 C         -45.994507     -118.175308      -38.970356
 C         -45.103691     -117.863976      -40.208694
 H         -42.208702     -119.075455      -38.705826
 H         -42.482220     -117.298439      -38.869823
 H         -45.785946     -117.862282      -36.937698
 H         -44.984943     -116.487976      -37.722652
 H         -43.902275     -119.778419      -40.282322
 H         -43.087112     -118.401382      -41.096977
 H         -46.976303     -117.579262      -39.071033
 H         -46.255219     -119.223274      -38.741283
 H         -45.738079     -118.129150      -41.014988
 H         -45.028759     -116.771240      -40.257275
