20
 generated by VMD
 C         -49.972271     -143.941544      -44.372551
 N         -49.302437     -143.686478      -45.232155
 H         -52.148479     -141.674393      -45.584381
 H         -50.693027     -144.138870      -43.591110
 C         -52.811153     -141.760422      -46.456230
 C         -52.172974     -141.830780      -47.835815
 C         -54.274208     -141.411880      -46.322247
 C         -53.285568     -142.368118      -48.897800
 C         -55.141823     -141.918015      -47.414833
 C         -54.588570     -141.701599      -48.789959
 H         -51.330284     -142.631424      -47.836670
 H         -51.732372     -140.804764      -47.992962
 H         -54.781883     -141.734680      -45.356678
 H         -54.405739     -140.322571      -46.507439
 H         -53.190350     -143.485977      -48.621941
 H         -53.014450     -142.249405      -49.966900
 H         -56.196476     -141.477081      -47.296963
 H         -55.235191     -143.019714      -47.471409
 H         -55.393616     -142.157028      -49.436642
 H         -54.605946     -140.574615      -49.043011
