20
 generated by VMD
 C         -41.671432     -102.325600      -34.072250
 N         -40.897617     -101.812057      -34.805183
 H         -39.563225     -103.980164      -32.388382
 H         -42.624870     -102.499199      -33.552380
 C         -38.501175     -104.078621      -32.085899
 C         -37.260368     -103.625961      -33.013378
 C         -38.146305     -104.991669      -30.957623
 C         -35.966877     -103.331024      -32.306175
 C         -36.885105     -104.405258      -30.271791
 C         -35.679752     -104.287704      -31.176495
 H         -37.454639     -102.651741      -33.510201
 H         -37.218025     -104.335434      -33.858772
 H         -39.034569     -105.187607      -30.363449
 H         -37.846104     -105.977615      -31.305416
 H         -35.798183     -102.347931      -31.779299
 H         -35.181026     -103.392586      -33.095451
 H         -36.636543     -104.890991      -29.407228
 H         -37.160988     -103.352852      -29.974968
 H         -34.844814     -103.960342      -30.598574
 H         -35.505566     -105.353195      -31.556828
