20
 generated by VMD
 C         -22.483084      -55.514187      -16.406248
 N         -23.152262      -54.608128      -16.295233
 H         -19.757149      -55.695381      -15.485834
 H         -21.908291      -56.575958      -16.416441
 C         -19.817244      -56.660271      -15.071563
 C         -20.475163      -56.644493      -13.747805
 C         -18.709002      -57.470802      -15.112491
 C         -20.947615      -58.008667      -13.516864
 C         -18.996828      -58.876694      -14.715490
 C         -19.721415      -58.871220      -13.361319
 H         -21.259424      -55.930962      -13.751478
 H         -19.791485      -56.320877      -12.973355
 H         -18.212070      -57.429996      -16.076996
 H         -17.954620      -56.982681      -14.470447
 H         -21.584780      -58.418671      -14.258670
 H         -21.493881      -58.143230      -12.574589
 H         -18.028236      -59.301304      -14.612317
 H         -19.606936      -59.412476      -15.479604
 H         -20.109760      -59.825134      -13.018957
 H         -19.055302      -58.529140      -12.498488
