20
 generated by VMD
 C         -30.834099      -78.016724      -25.240761
 N         -31.679253      -77.163452      -25.241129
 H         -29.288340      -76.986496      -22.558388
 H         -30.082438      -78.663528      -25.470720
 C         -28.776215      -77.895248      -22.497362
 C         -27.455404      -77.963173      -23.144415
 C         -29.350180      -79.010483      -21.679310
 C         -26.357719      -78.996735      -22.599197
 C         -28.094017      -79.816727      -20.962305
 C         -26.967236      -80.217384      -21.920277
 H         -27.002111      -76.918938      -22.963266
 H         -27.666100      -78.252800      -24.236322
 H         -29.881187      -78.522118      -20.877985
 H         -29.998577      -79.784630      -22.254030
 H         -25.659178      -78.560432      -21.860868
 H         -25.627943      -79.128220      -23.443808
 H         -28.555901      -80.681755      -20.463312
 H         -27.695770      -79.274742      -20.041294
 H         -26.286659      -80.824707      -21.447269
 H         -27.426456      -80.942039      -22.610382
