20
 generated by VMD
 C         -20.773510      -64.256866      -16.688372
 N         -19.688215      -63.899754      -16.693550
 H         -23.648808      -63.263577      -17.370237
 H         -21.811995      -64.776817      -16.910442
 C         -23.934902      -64.293541      -17.768644
 C         -24.502069      -64.480621      -19.215187
 C         -24.490118      -65.279419      -16.802284
 C         -24.944469      -65.914291      -19.588120
 C         -24.643812      -66.754356      -17.187590
 C         -25.433477      -66.850281      -18.527264
 H         -23.765295      -64.202812      -19.933355
 H         -25.415245      -63.856758      -19.167437
 H         -23.940109      -65.198807      -15.866008
 H         -25.539492      -64.867996      -16.685362
 H         -24.036335      -66.229492      -20.035809
 H         -25.587486      -65.754860      -20.444500
 H         -24.966604      -67.336617      -16.326197
 H         -23.621214      -67.072876      -17.478935
 H         -25.347708      -67.882492      -18.885151
 H         -26.543343      -66.782784      -18.404600
