20
 generated by VMD
 C         -28.465929      -74.048798      -18.710117
 N         -29.420858      -73.610382      -18.238417
 H         -25.317083      -72.437157      -18.746820
 H         -27.819672      -74.361923      -19.392799
 C         -25.544218      -72.367264      -19.848019
 C         -24.852814      -73.453766      -20.638002
 C         -25.866093      -71.038063      -20.435347
 C         -25.458452      -73.568192      -22.130573
 C         -26.188648      -71.037651      -21.937708
 C         -25.499651      -72.135277      -22.806410
 H         -24.911268      -74.393799      -20.112148
 H         -23.794552      -73.135933      -20.844069
 H         -26.694599      -70.615005      -19.849108
 H         -24.984928      -70.356987      -20.402149
 H         -26.517946      -73.895889      -21.934822
 H         -24.901697      -74.377182      -22.641937
 H         -25.943586      -69.991783      -22.321980
 H         -27.293314      -71.122345      -22.088968
 H         -25.792271      -72.235847      -23.783960
 H         -24.479172      -71.726547      -22.850996
