20
 generated by VMD
 C          -6.293008      -22.354902        1.919716
 N          -6.379217      -22.948763        2.842692
 H          -5.482944      -19.626814       -0.469368
 H          -6.935127      -20.535978       -0.153449
 C          -6.315167      -20.155613       -1.025519
 C          -5.754639      -21.299326       -1.940936
 C          -7.175431      -19.177208       -1.855416
 C          -6.922330      -22.013397       -2.688344
 C          -8.345389      -19.818403       -2.564117
 C          -7.865103      -20.991722       -3.408945
 H          -5.230779      -22.058270       -1.298828
 H          -5.102803      -20.805155       -2.615216
 H          -7.496850      -18.410904       -1.221110
 H          -6.565135      -18.741974       -2.608054
 H          -7.471586      -22.579277       -1.949142
 H          -6.578755      -22.765202       -3.373701
 H          -8.947173      -19.080477       -3.083455
 H          -9.082102      -20.280701       -1.893954
 H          -8.704455      -21.435358       -3.928856
 H          -7.186993      -20.524378       -4.091743
