20
 generated by VMD
 C         -51.480373     -130.045502      -45.052166
 N         -51.719715     -129.335876      -45.974575
 H         -48.429699     -129.866135      -43.359341
 H         -50.963158     -130.615250      -44.294502
 C         -48.069523     -129.983459      -42.359344
 C         -47.901878     -131.347198      -41.701065
 C         -47.406685     -128.812302      -41.598373
 C         -46.514164     -131.577774      -41.018471
 C         -46.050301     -129.197235      -40.979656
 C         -46.058647     -130.429260      -40.176216
 H         -47.990135     -132.136368      -42.365196
 H         -48.779163     -131.519196      -40.981556
 H         -47.229866     -127.894363      -42.229305
 H         -47.948795     -128.521118      -40.795719
 H         -45.627190     -131.887833      -41.659367
 H         -46.596401     -132.596298      -40.479839
 H         -45.651684     -128.439545      -40.319191
 H         -45.260601     -129.475571      -41.734951
 H         -45.058765     -130.710983      -39.863586
 H         -46.784561     -130.288025      -39.344627
