20
 generated by VMD
 C         -48.517246     -140.750305      -45.408127
 N         -47.392658     -140.590134      -45.437935
 H         -51.226398     -138.686005      -45.875881
 H         -49.612991     -140.668488      -45.453590
 C         -52.027470     -139.375717      -46.109215
 C         -52.515144     -139.344574      -47.422356
 C         -53.111115     -139.531357      -45.010967
 C         -53.383549     -140.571640      -47.782761
 C         -53.800789     -140.871613      -45.298424
 C         -54.410606     -140.833237      -46.667919
 H         -51.570160     -139.361816      -48.068012
 H         -53.043011     -138.394913      -47.499004
 H         -52.775776     -139.645691      -44.035328
 H         -53.715076     -138.688705      -44.958370
 H         -52.734848     -141.433014      -47.958321
 H         -53.845753     -140.391144      -48.723843
 H         -54.604439     -141.069458      -44.599194
 H         -53.119396     -141.707001      -45.251675
 H         -54.859024     -141.853775      -46.872517
 H         -55.359367     -140.094528      -46.576241
