20
 generated by VMD
 C         -11.329186      -34.012119       -8.243235
 N         -10.776322      -34.084877       -9.231772
 H         -11.724400      -37.674141       -7.892756
 H         -12.505050      -37.136078       -6.497905
 C         -12.588416      -37.891193       -7.275843
 C         -12.441671      -39.309906       -6.594848
 C         -13.827777      -37.750107       -8.137083
 C         -13.726440      -39.635838       -5.796793
 C         -15.065552      -37.962303       -7.245715
 C         -15.026320      -39.393524       -6.621389
 H         -11.577887      -39.373783       -5.910731
 H         -12.151125      -40.023033       -7.394640
 H         -13.790504      -36.744022       -8.614821
 H         -13.879790      -38.396633       -9.007207
 H         -13.827881      -39.101837       -4.873914
 H         -13.685781      -40.663074       -5.368208
 H         -16.014177      -37.785259       -7.755468
 H         -15.033216      -37.279640       -6.390413
 H         -15.840483      -39.459267       -5.914594
 H         -15.171191      -40.184696       -7.393425
