20
 generated by VMD
 C         -48.449596     -135.675262      -46.312641
 N         -47.406097     -135.683807      -45.865982
 H         -52.045597     -134.719269      -45.455780
 H         -49.277580     -135.722198      -46.982838
 C         -51.672928     -135.766052      -45.172630
 C         -52.392948     -137.042038      -45.433189
 C         -51.272671     -135.562500      -43.722569
 C         -51.535908     -138.207031      -45.063984
 C         -50.461449     -136.739731      -43.230080
 C         -51.186871     -138.088211      -43.578285
 H         -52.533924     -137.204239      -46.535595
 H         -53.345093     -137.125809      -44.948944
 H         -50.807545     -134.565903      -43.523216
 H         -52.317101     -135.578522      -43.221188
 H         -50.548931     -138.208008      -45.601654
 H         -52.019642     -139.135300      -45.351528
 H         -50.151886     -136.678802      -42.162548
 H         -49.477730     -136.734177      -43.754444
 H         -50.608505     -139.019836      -43.252426
 H         -52.202190     -138.188766      -43.005493
