20
 generated by VMD
 C         -10.784130      -33.642948       -8.651729
 N         -11.043129      -32.804337       -9.377897
 H         -11.857816      -36.947277       -8.248956
 H         -12.063689      -35.999680       -6.733476
 C         -12.347162      -36.976635       -7.252638
 C         -11.971149      -38.193642       -6.451672
 C         -13.834779      -36.939178       -7.539352
 C         -12.857844      -38.472633       -5.268207
 C         -14.737323      -37.177616       -6.292608
 C         -14.365956      -38.486168       -5.596241
 H         -10.968451      -38.038849       -6.091005
 H         -11.890945      -39.007782       -7.151354
 H         -14.101971      -36.002983       -7.974459
 H         -14.107681      -37.768963       -8.254751
 H         -12.675563      -37.886166       -4.414112
 H         -12.582032      -39.482853       -4.935598
 H         -15.721788      -37.281593       -6.693118
 H         -14.746404      -36.262718       -5.553917
 H         -14.962254      -38.602962       -4.655323
 H         -14.578270      -39.408272       -6.160616
