20
 generated by VMD
 C         -11.113429      -33.942566       -9.340212
 N         -11.342595      -33.685539       -8.301434
 H         -11.453869      -37.606243       -8.005783
 H         -12.040174      -36.835888       -6.592709
 C         -12.271605      -37.652660       -7.329039
 C         -12.294459      -38.981598       -6.589096
 C         -13.597931      -37.461868       -7.953572
 C         -13.457745      -39.078499       -5.545091
 C         -14.804958      -37.477528       -6.937189
 C         -14.779332      -38.832687       -6.194426
 H         -11.371334      -39.120644       -6.009542
 H         -12.250294      -39.882168       -7.269714
 H         -13.626806      -36.485649       -8.496435
 H         -13.776837      -38.186916       -8.783800
 H         -13.323122      -38.426140       -4.656481
 H         -13.402846      -40.141872       -5.068144
 H         -15.684170      -37.369713       -7.537365
 H         -14.698377      -36.616760       -6.283315
 H         -15.519364      -38.819805       -5.444948
 H         -15.025698      -39.659607       -6.871819
