20
 generated by VMD
 C         -60.926910     -172.233093      -55.260155
 N         -60.171917     -173.075394      -54.937866
 H         -62.379475     -170.653244      -57.248108
 H         -61.578487     -171.383682      -55.441002
 C         -63.134884     -169.824951      -57.255661
 C         -62.719360     -168.446716      -57.542210
 C         -64.575554     -170.013901      -57.321602
 C         -63.326527     -167.914505      -58.784458
 C         -65.099792     -169.486588      -58.631248
 C         -64.856766     -167.934921      -58.736462
 H         -61.723530     -168.317184      -57.569279
 H         -63.080448     -167.750854      -56.636696
 H         -64.777336     -171.034760      -57.184261
 H         -65.017319     -169.573105      -56.395920
 H         -62.995872     -168.516464      -59.750092
 H         -63.018299     -166.876526      -58.945255
 H         -66.165108     -169.656647      -58.668785
 H         -64.832123     -169.971863      -59.548962
 H         -65.425629     -167.483871      -59.536633
 H         -65.075546     -167.403900      -57.769554
