20
 generated by VMD
 C         -70.605965     -196.672745      -65.841461
 N         -69.471184     -196.512207      -65.963173
 H         -73.772614     -195.315018      -64.724304
 H         -71.717453     -196.871780      -65.839081
 C         -73.484825     -195.058395      -65.785919
 C         -72.662323     -193.790451      -65.890175
 C         -74.480179     -195.369080      -66.820435
 C         -72.624992     -193.160538      -67.323944
 C         -73.850319     -195.140305      -68.184525
 C         -73.529022     -193.739487      -68.460243
 H         -71.581146     -193.979797      -65.454437
 H         -72.929031     -193.067459      -65.013176
 H         -74.758293     -196.474426      -66.705246
 H         -75.333565     -194.678772      -66.656898
 H         -71.558731     -193.154190      -67.709602
 H         -72.804573     -192.073166      -67.292831
 H         -74.529541     -195.478226      -68.984497
 H         -72.950424     -195.783569      -68.352859
 H         -73.018707     -193.768814      -69.425133
 H         -74.483757     -193.248337      -68.709702
