20
 generated by VMD
 C         -38.708786     -108.293472      -36.816010
 N         -37.792274     -108.853790      -37.232323
 H         -41.798992     -109.480911      -36.156422
 H         -39.596558     -107.866188      -36.326164
 C         -41.501617     -110.082664      -35.211830
 C         -40.683777     -111.281853      -35.516037
 C         -42.409904     -109.771492      -34.103241
 C         -40.339310     -112.010681      -34.152874
 C         -42.092415     -110.710083      -32.925568
 C         -41.629608     -112.192169      -33.355556
 H         -39.727993     -111.117210      -36.030849
 H         -41.278320     -111.964989      -36.022495
 H         -42.592117     -108.724304      -33.863644
 H         -43.457794     -110.081772      -34.428535
 H         -39.625820     -111.268311      -33.709438
 H         -39.862961     -112.928810      -34.292049
 H         -42.969597     -110.707542      -32.211021
 H         -41.267593     -110.240494      -32.255695
 H         -41.391285     -112.705795      -32.492237
 H         -42.410408     -112.890579      -33.838757
