20
 generated by VMD
 C         -46.491859     -124.410805      -36.146835
 N         -46.968258     -125.323303      -35.590244
 H         -44.439659     -121.560776      -37.955658
 H         -45.915581     -123.618469      -36.527451
 C         -44.505428     -121.438690      -39.013298
 C         -43.266060     -121.669754      -39.842438
 C         -45.667778     -120.873802      -39.588478
 C         -43.559811     -121.875580      -41.317696
 C         -45.941639     -121.183624      -41.067665
 C         -44.631218     -120.930931      -41.814159
 H         -42.707138     -122.430695      -39.380478
 H         -42.872463     -120.616318      -39.969837
 H         -46.503651     -121.191383      -38.959789
 H         -45.707581     -119.791740      -39.469620
 H         -44.031601     -122.826637      -41.365898
 H         -42.671715     -121.725723      -41.901722
 H         -46.735504     -120.668533      -41.678814
 H         -46.185574     -122.294411      -41.174946
 H         -44.534168     -120.890198      -42.890633
 H         -44.305294     -119.922279      -41.581688
