20
 generated by VMD
 C         -11.224077      -37.442375       -7.135249
 N         -11.481143      -37.726322       -8.184023
 H         -12.359386      -40.459728       -8.289319
 H         -13.642667      -39.831074       -7.079904
 C         -13.487292      -40.392311       -8.081875
 C         -14.041854      -41.835060       -7.927538
 C         -14.228930      -39.546055       -9.151557
 C         -15.524349      -41.882587       -7.801483
 C         -15.720441      -39.653275       -8.992373
 C         -16.264795      -41.148388       -8.905211
 H         -13.500797      -42.307510       -7.111133
 H         -13.698528      -42.374317       -8.822135
 H         -13.939869      -38.543709       -9.084793
 H         -13.867988      -39.877960      -10.129678
 H         -15.781704      -41.512489       -6.829229
 H         -15.907658      -42.902828       -7.823619
 H         -16.293663      -39.146389       -9.751447
 H         -16.016050      -39.111855       -8.036976
 H         -17.340195      -41.127522       -8.699788
 H         -16.165457      -41.607403       -9.937875
