20
 generated by VMD
 C         -69.307068     -180.908783      -62.379086
 N         -70.139282     -180.142868      -62.214909
 H         -66.997414     -181.313812      -60.209221
 H         -68.514801     -181.601257      -62.606148
 C         -66.528946     -180.379959      -60.335911
 C         -65.018333     -180.384933      -60.640369
 C         -67.024460     -179.118576      -59.715736
 C         -64.606255     -179.101791      -61.284382
 C         -66.587494     -177.876282      -60.495224
 C         -65.140144     -177.858276      -60.679554
 H         -64.696487     -181.213394      -61.243931
 H         -64.549065     -180.498184      -59.677219
 H         -68.084251     -179.225113      -59.765808
 H         -66.747536     -178.913010      -58.602383
 H         -64.836578     -179.086517      -62.303299
 H         -63.549999     -178.994598      -61.324512
 H         -67.048798     -176.905167      -60.239014
 H         -66.905457     -178.060150      -61.501980
 H         -64.925957     -176.867355      -61.234993
 H         -64.858658     -177.508972      -59.756180
