20
 generated by VMD
 C         -70.416656     -196.694458      -65.457878
 N         -69.409401     -196.860596      -66.054306
 H         -73.669098     -195.631393      -64.914612
 H         -71.222633     -196.289154      -64.916924
 C         -73.582535     -195.193756      -65.946259
 C         -73.031456     -193.752350      -66.010910
 C         -74.504669     -195.631180      -66.974266
 C         -72.409599     -193.615784      -67.313858
 C         -74.154770     -195.014801      -68.445869
 C         -73.502571     -193.553955      -68.376770
 H         -72.225922     -193.648666      -65.322433
 H         -73.958244     -193.036560      -65.931908
 H         -74.590309     -196.755814      -67.159485
 H         -75.570038     -195.395401      -66.854881
 H         -71.809685     -194.550385      -67.528183
 H         -71.738937     -192.733154      -67.315254
 H         -75.042892     -194.970505      -69.146797
 H         -73.442932     -195.728516      -68.844124
 H         -73.041092     -193.349365      -69.439499
 H         -74.242752     -192.880692      -68.215332
