20
 generated by VMD
 C         -62.753513     -174.629288      -54.639385
 N         -63.281631     -174.174850      -55.597408
 H         -63.197285     -172.851379      -58.009171
 H         -62.193260     -175.142105      -53.857712
 C         -63.740631     -171.977386      -58.430859
 C         -63.739113     -170.874176      -57.492878
 C         -64.339409     -172.109863      -59.764877
 C         -63.683643     -169.549866      -58.278442
 C         -64.281563     -170.718964      -60.452629
 C         -64.783562     -169.672989      -59.442623
 H         -62.806896     -170.852798      -56.747688
 H         -64.559380     -170.816071      -56.871078
 H         -63.728054     -172.744720      -60.420723
 H         -65.431671     -172.386368      -59.566673
 H         -62.605640     -169.270920      -58.641159
 H         -63.983639     -168.736847      -57.502880
 H         -64.860146     -170.741684      -61.362698
 H         -63.264301     -170.463028      -60.865669
 H         -65.097519     -168.729156      -59.976723
 H         -65.715805     -170.099380      -58.958725
