20
 generated by VMD
 C         -40.101139     -105.112068      -37.081772
 N         -39.718231     -104.016380      -37.036121
 H         -40.130398     -108.258606      -35.215946
 H         -40.458603     -106.098457      -36.831390
 C         -39.623924     -108.671730      -34.298954
 C         -38.496109     -108.103806      -33.592800
 C         -40.311035     -109.774284      -33.683609
 C         -38.954041     -107.700813      -32.166714
 C         -40.639378     -109.508011      -32.139671
 C         -39.463238     -108.994896      -31.392527
 H         -38.112717     -107.332909      -34.130756
 H         -37.747120     -108.837013      -33.491497
 H         -41.251904     -110.083138      -34.175350
 H         -39.646469     -110.700325      -33.690762
 H         -39.753605     -106.873367      -32.272621
 H         -38.036995     -107.288391      -31.668137
 H         -40.948303     -110.489731      -31.769083
 H         -41.527428     -108.977264      -31.996521
 H         -39.767673     -108.849770      -30.352224
 H         -38.732067     -109.819847      -31.309603
