20
 generated by VMD
 C         -47.528267     -124.693634      -38.035107
 N         -47.504330     -125.708305      -38.645561
 H         -44.550247     -122.271111      -37.663380
 H         -47.392956     -123.853851      -37.401970
 C         -44.738316     -122.515411      -38.723679
 C         -43.727509     -123.220871      -39.503616
 C         -45.761696     -121.650185      -39.496761
 C         -44.086395     -123.786591      -40.879368
 C         -46.125744     -122.206978      -40.911858
 C         -44.983383     -122.828285      -41.729141
 H         -43.423691     -124.173302      -38.980228
 H         -42.918415     -122.601738      -39.554745
 H         -46.654850     -121.375259      -39.008492
 H         -45.175892     -120.693764      -39.699947
 H         -44.507950     -124.750793      -40.764130
 H         -43.204861     -124.091339      -41.265553
 H         -46.751190     -121.396614      -41.330086
 H         -46.843464     -123.067055      -40.698078
 H         -45.375542     -123.266937      -42.638844
 H         -44.391018     -121.976181      -41.963139
