20
 generated by VMD
 C         -50.109642     -128.667831      -43.496403
 N         -50.764446     -129.326736      -44.221760
 H         -48.897732     -128.236038      -39.990891
 H         -49.718460     -128.093811      -42.643829
 C         -47.865875     -128.207809      -40.320553
 C         -46.810867     -129.286362      -39.938911
 C         -47.197529     -126.981979      -40.776157
 C         -45.885986     -129.580093      -41.140808
 C         -46.295113     -127.257286      -42.065868
 C         -45.187256     -128.272522      -41.717957
 H         -47.232262     -130.254791      -39.650517
 H         -46.207787     -128.827240      -39.100826
 H         -48.030338     -126.149216      -41.059914
 H         -46.667301     -126.517334      -39.993011
 H         -46.576912     -129.798401      -41.973442
 H         -44.964581     -130.207458      -40.840237
 H         -45.747871     -126.386032      -42.297588
 H         -46.957645     -127.650032      -42.816204
 H         -44.477806     -128.534088      -42.567188
 H         -44.503872     -127.944443      -40.951603
