20
 generated by VMD
 C         -39.965767     -100.898544      -31.594248
 N         -40.662586     -100.125061      -31.102459
 H         -37.213501     -103.647919      -31.656366
 H         -39.379696     -101.664032      -31.957897
 C         -36.817284     -102.627357      -31.644983
 C         -36.089748     -102.048279      -32.732578
 C         -36.720535     -102.099197      -30.128794
 C         -35.825966     -100.497246      -32.620659
 C         -36.220325     -100.608696      -30.092897
 C         -35.201878     -100.133308      -31.158569
 H         -36.535370     -102.287636      -33.706306
 H         -35.104149     -102.612213      -32.769215
 H         -37.719635     -102.337479      -29.647152
 H         -35.924412     -102.688858      -29.650450
 H         -36.731373      -99.962677      -32.664013
 H         -35.240158      -99.970436      -33.382057
 H         -35.733330     -100.443993      -29.048447
 H         -37.083275      -99.901100      -30.097910
 H         -34.948647      -99.108711      -31.115757
 H         -34.227047     -100.573883      -30.925791
