20
 generated by VMD
 C         -47.329769     -137.872726      -46.156593
 N         -47.254967     -137.223328      -47.058334
 H         -50.306389     -137.167572      -44.384186
 H         -47.354691     -138.567383      -45.299870
 C         -51.299446     -137.531845      -44.642742
 C         -51.394543     -138.186508      -46.031639
 C         -52.582493     -137.273666      -44.026981
 C         -52.193169     -139.467606      -45.968304
 C         -53.440434     -138.569809      -43.958900
 C         -53.546604     -139.295273      -45.249184
 H         -50.372379     -138.350830      -46.224857
 H         -51.862617     -137.396515      -46.766068
 H         -52.374958     -137.048538      -43.000504
 H         -53.003597     -136.459412      -44.541698
 H         -51.618713     -140.289078      -45.519043
 H         -52.505871     -139.818817      -46.993992
 H         -54.420647     -138.356522      -43.492977
 H         -53.082329     -139.276062      -43.285912
 H         -54.057621     -140.233398      -45.119419
 H         -54.350204     -138.634583      -45.822495
