20
 generated by VMD
 C         -46.090317     -124.089615      -35.748482
 N         -46.668045     -125.058846      -35.498672
 H         -44.763824     -122.399048      -38.502197
 H         -45.578087     -123.109741      -35.865467
 C         -44.603806     -121.467239      -38.998425
 C         -43.260628     -121.473251      -39.731728
 C         -45.762554     -120.705177      -39.522228
 C         -43.459846     -121.538254      -41.282143
 C         -45.914288     -120.856262      -41.033810
 C         -44.540508     -120.613876      -41.803459
 H         -42.712135     -122.375267      -39.528168
 H         -42.693745     -120.509056      -39.500530
 H         -46.660900     -120.983597      -39.057961
 H         -45.636070     -119.673042      -39.121197
 H         -43.779388     -122.616486      -41.488770
 H         -42.434399     -121.230988      -41.720226
 H         -46.658783     -120.030182      -41.525707
 H         -46.425365     -121.862717      -41.405037
 H         -44.675808     -120.955589      -42.861855
 H         -44.292725     -119.564560      -41.931469
