20
 generated by VMD
 C         -15.190396      -46.586899       -6.064518
 N         -15.004271      -47.325665       -5.253561
 H         -15.951295      -45.794273       -9.694861
 H         -14.801720      -45.731945      -10.970146
 C         -15.868997      -45.635483      -10.733002
 C         -16.406235      -44.273014      -11.047331
 C         -16.704319      -46.778702      -11.361529
 C         -16.501146      -44.050709      -12.593651
 C         -16.742180      -46.519424      -12.812821
 C         -17.305901      -45.177422      -13.300854
 H         -15.821842      -43.500309      -10.564294
 H         -17.413536      -44.150116      -10.598430
 H         -16.344852      -47.792587      -11.140907
 H         -17.662355      -46.783920      -10.823316
 H         -15.515783      -43.964241      -13.066452
 H         -16.924780      -43.041489      -12.773598
 H         -17.173998      -47.325718      -13.339832
 H         -15.724563      -46.517994      -13.179809
 H         -17.117056      -45.024059      -14.346148
 H         -18.388897      -45.190311      -13.075648
