20
 generated by VMD
 C         -51.564796     -130.039001      -45.098335
 N         -51.748695     -129.377686      -46.087215
 H         -48.717667     -129.952011      -43.129128
 H         -51.594028     -130.609558      -44.195202
 C         -47.918018     -130.005661      -42.297199
 C         -47.877880     -131.404816      -41.738598
 C         -47.368340     -128.850311      -41.603088
 C         -46.545773     -131.636429      -41.029488
 C         -46.020412     -129.191849      -41.010929
 C         -46.129169     -130.509232      -40.060482
 H         -48.164116     -132.117645      -42.647919
 H         -48.631855     -131.581375      -41.033386
 H         -47.230434     -128.198364      -42.424324
 H         -48.276566     -128.517563      -40.902081
 H         -45.975510     -131.827744      -41.915207
 H         -46.569607     -132.597946      -40.587574
 H         -45.634743     -128.345276      -40.363693
 H         -45.246616     -129.387482      -41.756329
 H         -45.127769     -130.770432      -39.636318
 H         -46.894493     -130.423981      -39.296223
