20
 generated by VMD
 C         -52.502789     -146.978317      -45.314468
 N         -53.314983     -147.385452      -44.638256
 H         -54.953781     -147.153915      -48.056358
 H         -51.703419     -146.642624      -45.943726
 C         -54.610596     -146.192383      -48.533318
 C         -53.404366     -146.104813      -49.323170
 C         -55.262550     -145.021027      -48.078243
 C         -53.300686     -144.958969      -50.303009
 C         -55.206455     -143.885086      -49.045055
 C         -53.864296     -143.673691      -49.694874
 H         -53.208088     -147.098312      -49.736511
 H         -52.539471     -145.903137      -48.591038
 H         -56.360088     -145.236603      -47.961571
 H         -54.760250     -144.909348      -47.065125
 H         -53.880947     -145.280914      -51.318604
 H         -52.315865     -144.644424      -50.750160
 H         -55.470306     -143.080215      -48.408001
 H         -56.088718     -143.938187      -49.716068
 H         -53.768192     -142.849670      -50.461452
 H         -53.144863     -143.484436      -48.847172
