20
 generated by VMD
 C         -32.362389      -93.445618      -25.378286
 N         -33.012203      -94.381187      -25.565233
 H         -33.673950      -94.916168      -28.561220
 H         -31.682430      -92.546928      -25.086151
 C         -34.336063      -94.233147      -29.178204
 C         -35.455132      -93.577034      -28.563658
 C         -33.702774      -93.383560      -30.254141
 C         -35.377010      -92.087669      -28.153942
 C         -33.552185      -91.899315      -29.878323
 C         -34.860413      -91.332047      -29.410410
 H         -35.802731      -94.060249      -27.629732
 H         -36.361023      -93.494255      -29.224394
 H         -32.693233      -93.832680      -30.534121
 H         -34.262009      -93.501816      -31.178125
 H         -34.724041      -91.787743      -27.356956
 H         -36.336506      -91.666267      -27.729563
 H         -33.265797      -91.392120      -30.776108
 H         -32.731647      -91.857948      -29.113100
 H         -34.739269      -90.197464      -29.255320
 H         -35.467613      -91.256828      -30.371492
