20
 generated by VMD
 C         -50.675102     -129.935501      -45.188778
 N         -51.202351     -129.285172      -44.353653
 H         -49.196224     -129.286896      -42.762386
 H         -50.114422     -130.299438      -46.080185
 C         -48.252583     -129.461212      -42.144272
 C         -48.003845     -130.702774      -41.419422
 C         -47.488243     -128.342621      -41.431927
 C         -46.457115     -131.110886      -41.231823
 C         -46.022049     -128.605255      -41.215763
 C         -45.722610     -129.967941      -40.503021
 H         -48.474373     -131.583374      -41.946651
 H         -48.447868     -130.671616      -40.507725
 H         -47.667263     -127.489769      -42.037533
 H         -47.999477     -128.258255      -40.395794
 H         -45.999344     -131.320267      -42.238773
 H         -46.443176     -131.990494      -40.641285
 H         -45.608936     -127.666748      -40.684452
 H         -45.518879     -128.706299      -42.204899
 H         -44.621502     -130.065247      -40.378029
 H         -46.090397     -129.748108      -39.538578
