20
 generated by VMD
 C          -6.507071      -22.500076        1.947475
 N          -6.254511      -22.920876        2.948007
 H          -5.673673      -19.788347       -0.504043
 H          -7.088349      -20.862751       -0.293129
 C          -6.446928      -20.340275       -0.975574
 C          -5.904659      -21.417244       -1.962676
 C          -7.161753      -19.257076       -1.770730
 C          -6.995740      -22.006531       -2.828465
 C          -8.238534      -19.887447       -2.663856
 C          -7.766936      -20.960327       -3.574740
 H          -5.393693      -22.268932       -1.432101
 H          -5.059197      -21.015804       -2.586158
 H          -7.673100      -18.574501       -1.110438
 H          -6.508689      -18.664972       -2.467594
 H          -7.682844      -22.454475       -2.103236
 H          -6.611681      -22.751865       -3.520426
 H          -8.746140      -19.098291       -3.234918
 H          -8.912605      -20.431265       -1.990402
 H          -8.597595      -21.325510       -4.148026
 H          -7.112866      -20.536631       -4.319661
