20
 generated by VMD
 C         -40.318089     -100.204735      -30.074575
 N         -41.085255     -100.478012      -30.914604
 H         -36.979061     -102.236771      -30.762043
 H         -39.426991     -100.124802      -29.356546
 C         -36.529964     -101.165535      -30.930376
 C         -36.393600     -100.660149      -32.312668
 C         -35.431347     -100.950943      -29.919943
 C         -35.834686      -99.236595      -32.342499
 C         -34.652603      -99.607521      -30.090940
 C         -34.420704      -99.135651      -31.548765
 H         -37.413883     -100.747971      -32.745693
 H         -35.734192     -101.337875      -32.805733
 H         -35.919151     -101.225365      -28.948376
 H         -34.775146     -101.786285      -30.169149
 H         -36.613731      -98.623474      -31.773632
 H         -35.849236      -98.943848      -33.409801
 H         -33.755703      -99.548355      -29.501974
 H         -35.314571      -98.764160      -29.683310
 H         -34.036297      -98.086372      -31.467485
 H         -33.678299      -99.597229      -32.124550
