20
 generated by VMD
 C         -67.928490     -185.816116      -67.387039
 N         -68.718842     -186.636902      -67.663872
 H         -68.675545     -187.279404      -64.770180
 H         -67.181511     -185.057983      -67.266724
 C         -69.274788     -187.585342      -63.858162
 C         -68.737419     -187.087921      -62.644146
 C         -70.718102     -187.967850      -64.074707
 C         -69.624916     -187.133057      -61.410385
 C         -71.412582     -188.413452      -62.786922
 C         -71.187065     -187.351288      -61.693783
 H         -68.622147     -185.993347      -62.851395
 H         -67.785980     -187.648636      -62.511250
 H         -71.343315     -187.149643      -64.475212
 H         -70.652191     -188.833969      -64.820831
 H         -69.392075     -186.273056      -60.768475
 H         -69.287018     -188.004135      -60.748085
 H         -70.956917     -189.348267      -62.371090
 H         -72.456192     -188.646591      -63.043362
 H         -71.533119     -186.311707      -61.760273
 H         -71.802048     -187.708450      -60.919857
