20
 generated by VMD
 C         -13.063179      -28.599731       -5.340250
 N         -12.801875      -27.537155       -5.545354
 H         -11.212543      -30.874956       -3.158890
 H         -11.124254      -29.377062       -3.961986
 C         -10.535157      -30.225311       -3.608219
 C          -9.750862      -30.945541       -4.677239
 C          -9.566386      -29.687878       -2.563717
 C          -8.691025      -30.033041       -5.342713
 C          -8.594519      -28.756754       -3.156132
 C          -7.767150      -29.361919       -4.258476
 H         -10.461216      -31.254705       -5.490004
 H          -9.336223      -31.837717       -4.324328
 H         -10.180411      -29.159521       -1.796369
 H          -9.078327      -30.558367       -2.033069
 H          -9.204115      -29.329981       -5.939907
 H          -8.065199      -30.573128       -6.029774
 H          -7.932259      -28.353369       -2.312793
 H          -9.078897      -27.862766       -3.522126
 H          -7.307656      -28.466473       -4.649874
 H          -7.043407      -30.168242       -3.894058
