20
 generated by VMD
 C         -12.738661      -27.018423       -2.536814
 N         -12.268962      -27.726278       -1.802014
 H         -10.577583      -26.480190       -4.346459
 H          -9.137043      -26.052193       -5.295319
 C          -9.465762      -26.588352       -4.428145
 C          -9.016189      -28.010954       -4.494138
 C          -8.783151      -25.860439       -3.223871
 C          -7.497675      -28.199188       -4.377469
 C          -7.242022      -25.993519       -3.238765
 C          -6.901387      -27.503912       -3.176930
 H          -9.423225      -28.339537       -5.429840
 H          -9.443841      -28.610392       -3.657901
 H          -9.093171      -24.807638       -3.172767
 H          -9.243477      -26.305719       -2.323128
 H          -7.033200      -27.668211       -5.246417
 H          -7.256236      -29.260576       -4.368653
 H          -6.689251      -25.501080       -2.409411
 H          -6.908573      -25.710825       -4.212317
 H          -5.827456      -27.660080       -3.122050
 H          -7.393587      -27.816559       -2.234465
