20
 generated by VMD
 C         -39.775631     -105.565857      -37.048126
 N         -40.379906     -106.473541      -37.435780
 H         -38.688381     -107.870323      -34.978985
 H         -39.112839     -104.926476      -36.509674
 C         -39.267326     -108.457260      -34.249699
 C         -38.384274     -109.167564      -33.219097
 C         -40.668777     -109.108070      -34.482597
 C         -39.128822     -109.362457      -31.864473
 C         -41.336590     -109.385139      -33.088116
 C         -40.501522     -110.052841      -32.106224
 H         -37.489628     -108.632332      -33.004940
 H         -38.034142     -110.133827      -33.639729
 H         -41.395794     -108.400101      -34.927319
 H         -40.645878     -110.042862      -34.951912
 H         -39.481693     -108.411209      -31.406534
 H         -38.422474     -109.847687      -31.199896
 H         -42.175056     -110.091293      -33.281231
 H         -41.658909     -108.337067      -32.652119
 H         -40.977036     -110.014290      -31.208567
 H         -40.355045     -111.159637      -32.362064
