20
 generated by VMD
 C         -68.275093     -193.622330      -65.296219
 N         -68.236778     -194.792877      -65.269241
 H         -70.941605     -192.311539      -67.808563
 H         -67.968475     -192.531555      -65.298759
 C         -71.664108     -192.262054      -67.013138
 C         -71.930344     -190.963654      -66.287392
 C         -72.473106     -193.465454      -66.603958
 C         -73.440857     -190.657028      -66.152069
 C         -73.363480     -193.124435      -65.406136
 C         -74.145111     -191.820206      -65.337784
 H         -71.617119     -190.052124      -66.804977
 H         -71.530273     -190.990845      -65.311020
 H         -73.098801     -193.665146      -67.496338
 H         -71.864883     -194.309616      -66.368988
 H         -73.909912     -190.713852      -67.176407
 H         -73.765190     -189.611069      -65.849030
 H         -72.732864     -193.132645      -64.503616
 H         -73.943802     -194.099533      -65.279808
 H         -75.224098     -192.079544      -65.748802
 H         -74.246521     -191.526688      -64.355278
