20
 generated by VMD
 C         -38.586597     -111.483215      -36.346375
 N         -38.367805     -110.471863      -36.901775
 H         -40.244923     -114.373360      -35.010384
 H         -38.892086     -112.189156      -35.639740
 C         -41.329876     -114.126312      -35.194023
 C         -41.766209     -114.453575      -36.597797
 C         -42.096504     -113.219231      -34.226009
 C         -43.227463     -114.089363      -36.887825
 C         -43.636116     -113.037201      -34.515804
 C         -43.825859     -112.928513      -36.171143
 H         -41.575081     -115.504272      -36.848061
 H         -41.113094     -113.812897      -37.269257
 H         -42.124447     -113.562767      -33.181568
 H         -41.605202     -112.216927      -34.344883
 H         -43.768547     -114.975204      -36.857613
 H         -43.178814     -113.692307      -37.926552
 H         -43.935898     -112.035683      -34.113934
 H         -44.293064     -113.883942      -34.292862
 H         -44.993362     -112.873436      -36.278984
 H         -43.432980     -111.947296      -36.544781
