20
 generated by VMD
 C         -74.949577     -201.631836      -66.623528
 N         -75.028404     -201.643417      -65.482765
 H         -76.350029     -199.258789      -68.647041
 H         -75.010361     -201.658829      -67.685020
 C         -75.367043     -198.959412      -69.051399
 C         -74.904366     -197.683456      -68.353195
 C         -74.301575     -199.551468      -69.905243
 C         -73.453339     -197.694138      -68.008636
 C         -73.201485     -198.543167      -70.338486
 C         -72.606529     -197.604935      -69.254326
 H         -75.373642     -197.609695      -67.455765
 H         -75.120003     -196.817444      -69.007668
 H         -73.923904     -200.461212      -69.456398
 H         -74.728615     -200.051331      -70.855812
 H         -73.063545     -198.442291      -67.356483
 H         -73.186142     -196.839890      -67.385101
 H         -73.598000     -197.826599      -71.050369
 H         -72.475410     -199.055649      -70.881195
 H         -71.599304     -197.884476      -69.053085
 H         -72.619370     -196.531052      -69.681801
