20
 generated by VMD
 C         -79.761307     -206.789612      -73.294197
 N         -79.741982     -206.149063      -74.274887
 H         -78.237450     -205.470322      -70.460518
 H         -79.987793     -207.290237      -72.414505
 C         -77.180534     -205.665329      -70.301666
 C         -76.298584     -204.684494      -70.936874
 C         -76.938805     -206.880768      -69.580635
 C         -74.858772     -204.852356      -70.456131
 C         -75.478119     -207.002258      -69.176300
 C         -74.546196     -206.372223      -70.215408
 H         -76.576866     -203.629135      -70.955978
 H         -76.283310     -205.043365      -72.058044
 H         -77.660378     -207.017014      -68.787163
 H         -77.014854     -207.776291      -70.255035
 H         -74.680550     -204.256561      -69.513557
 H         -74.164597     -204.391510      -71.221527
 H         -75.390160     -208.127121      -68.965141
 H         -75.272141     -206.487686      -68.247253
 H         -73.637428     -206.451782      -69.649864
 H         -74.360062     -206.930069      -71.172035
