20
 generated by VMD
 C         -20.841259      -52.300030       -9.619594
 N         -21.283800      -52.175667      -10.679684
 H         -19.039328      -49.953770      -11.576141
 H         -20.462509      -52.261658       -8.521969
 C         -18.171848      -49.890881      -12.211061
 C         -17.638874      -51.289902      -12.424909
 C         -17.272894      -48.706387      -12.139511
 C         -16.790306      -51.338978      -13.704642
 C         -16.644682      -48.761127      -13.537653
 C         -15.945395      -50.111877      -13.841176
 H         -18.521933      -51.964355      -12.437370
 H         -16.977570      -51.537819      -11.573956
 H         -17.783831      -47.747379      -11.996638
 H         -16.507629      -48.717926      -11.289882
 H         -17.515507      -51.419579      -14.539199
 H         -16.141026      -52.213516      -13.768072
 H         -15.955195      -47.955135      -13.500481
 H         -17.394255      -48.493492      -14.379937
 H         -15.578404      -50.139233      -14.851912
 H         -15.049208      -50.157078      -13.241775
