20
 generated by VMD
 C         -38.267082     -109.691673      -36.490353
 N         -37.570118     -109.006004      -35.870087
 H         -40.837807     -111.468185      -37.075855
 H         -39.091129     -110.315231      -36.926975
 C         -41.268364     -111.919540      -36.148708
 C         -42.120720     -113.158302      -36.387672
 C         -41.931511     -110.911980      -35.199451
 C         -42.509315     -113.841324      -35.076202
 C         -42.140945     -111.545265      -33.815773
 C         -42.968105     -112.935326      -33.882946
 H         -41.547882     -113.911667      -36.977482
 H         -43.027248     -112.977684      -37.103432
 H         -41.189808     -110.090027      -35.364471
 H         -42.851723     -110.704727      -35.765991
 H         -41.591816     -114.347198      -34.675301
 H         -43.269985     -114.559387      -35.276215
 H         -42.620781     -110.932045      -33.039883
 H         -41.097504     -111.827385      -33.454597
 H         -42.945042     -113.504135      -32.944340
 H         -44.049400     -112.534142      -34.098568
