20
 generated by VMD
 C         -56.232563     -149.432419      -45.992241
 N         -56.222153     -150.453568      -45.454575
 H         -53.729713     -148.011780      -47.800648
 H         -56.276436     -148.554138      -46.575264
 C         -53.929646     -147.438873      -48.666798
 C         -53.008469     -147.783737      -49.849949
 C         -54.684437     -146.062057      -48.494972
 C         -53.542564     -147.049088      -51.237839
 C         -55.311554     -145.694550      -49.865433
 C         -54.390800     -145.693085      -51.086632
 H         -52.987392     -148.901718      -50.023441
 H         -52.081039     -147.290451      -49.590065
 H         -55.532219     -146.305435      -47.755928
 H         -54.054672     -145.195450      -48.117790
 H         -54.095860     -147.882080      -51.730621
 H         -52.566040     -146.897964      -51.873665
 H         -55.790443     -144.642380      -49.838673
 H         -56.229351     -146.206024      -50.059399
 H         -54.924423     -145.516891      -52.005428
 H         -53.674782     -144.860962      -50.939373
