20
 generated by VMD
 C         -59.372490     -168.446640      -55.577038
 N         -58.740253     -168.846054      -54.741711
 H         -62.295208     -169.434494      -55.881573
 H         -59.917606     -168.160431      -56.458603
 C         -62.670994     -168.579987      -56.372181
 C         -62.779449     -168.498032      -57.868225
 C         -62.924419     -167.396774      -55.551178
 C         -63.900375     -167.632477      -58.382690
 C         -64.163773     -166.498932      -56.063911
 C         -63.968872     -166.186584      -57.611652
 H         -62.933033     -169.508163      -58.247040
 H         -61.759682     -168.082306      -58.330738
 H         -63.040188     -167.575867      -54.348316
 H         -62.133129     -166.624466      -55.579033
 H         -64.840790     -168.182098      -58.226624
 H         -63.645931     -167.434097      -59.423599
 H         -64.058426     -165.699524      -55.385952
 H         -64.993004     -167.157532      -56.075890
 H         -64.849556     -165.766602      -58.078003
 H         -63.022163     -165.589890      -57.829292
