20
 generated by VMD
 C         -21.821306      -66.921326      -16.797480
 N         -21.029314      -66.908897      -15.963360
 H         -23.972141      -65.086411      -17.886717
 H         -22.846041      -66.906860      -17.354147
 C         -24.532873      -65.680069      -18.564213
 C         -24.052200      -66.183182      -19.933880
 C         -25.819042      -66.169075      -17.958000
 C         -24.272968      -67.644913      -20.021732
 C         -26.205883      -67.506821      -18.381273
 C         -25.709568      -67.961182      -19.810585
 H         -22.947363      -66.042061      -20.047487
 H         -24.624512      -65.658600      -20.622658
 H         -25.952332      -66.191376      -16.850822
 H         -26.655649      -65.479179      -18.357475
 H         -23.746851      -68.049232      -19.209702
 H         -23.885920      -68.066399      -20.956953
 H         -27.248833      -67.543633      -18.262897
 H         -25.840853      -68.307419      -17.732449
 H         -25.802439      -69.015030      -20.055956
 H         -26.245045      -67.403664      -20.625727
