20
 generated by VMD
 C         -60.135880     -171.303070      -55.295021
 N         -59.383781     -172.152130      -54.993156
 H         -63.112480     -170.233597      -56.122364
 H         -60.863762     -170.541718      -55.588051
 C         -63.409473     -169.522614      -56.853462
 C         -62.512493     -168.504181      -57.469223
 C         -64.806786     -169.091324      -56.727501
 C         -63.061481     -167.912674      -58.771793
 C         -65.308746     -168.568863      -58.063034
 C         -64.512390     -167.371216      -58.634529
 H         -61.637772     -168.923721      -57.693363
 H         -62.229584     -167.669754      -56.710529
 H         -65.342415     -170.058136      -56.535881
 H         -64.780952     -168.533936      -55.731510
 H         -63.132252     -168.766525      -59.457977
 H         -62.391094     -167.187927      -59.078098
 H         -66.424728     -168.420700      -57.910919
 H         -65.314072     -169.379959      -58.855598
 H         -64.913612     -167.099075      -59.645744
 H         -64.510887     -166.454559      -58.076458
