20
 generated by VMD
 C         -11.468447      -32.235233       -8.929708
 N         -12.202418      -32.686584       -9.601815
 H         -11.663979      -33.779854       -6.490610
 H         -12.238447      -34.235962       -4.831604
 C         -11.997909      -34.632626       -5.819145
 C         -10.918533      -35.653442       -5.563902
 C         -13.178311      -35.206989       -6.514686
 C         -11.481313      -36.769966       -4.641639
 C         -13.731836      -36.375404       -5.736579
 C         -12.711988      -37.435181       -5.323881
 H          -9.997278      -35.241669       -5.143476
 H         -10.587837      -36.093197       -6.550774
 H         -14.040579      -34.565105       -6.578989
 H         -12.872225      -35.564594       -7.493965
 H         -11.645568      -36.403358       -3.634493
 H         -10.682068      -37.477867       -4.484264
 H         -14.526908      -36.922260       -6.363211
 H         -14.283379      -36.034218       -4.902932
 H         -13.238060      -38.062767       -4.623797
 H         -12.422727      -38.119175       -6.192374
