20
 generated by VMD
 C         -44.333298     -121.931389      -35.915836
 N         -43.862049     -120.879974      -35.909626
 H         -44.866787     -122.568336      -38.909397
 H         -44.531414     -122.931412      -36.047119
 C         -44.784748     -121.641243      -39.464123
 C         -43.388660     -121.111176      -39.681511
 C         -45.945236     -120.609558      -39.121414
 C         -43.308376     -119.637566      -40.100998
 C         -45.706741     -119.197281      -39.692184
 C         -44.346157     -118.707649      -39.425880
 H         -42.923790     -121.669037      -40.410072
 H         -42.867474     -121.172058      -38.743542
 H         -46.820118     -121.088943      -39.577892
 H         -46.154617     -120.567810      -37.967243
 H         -43.574768     -119.666801      -41.173862
 H         -42.192379     -119.400711      -39.965687
 H         -46.570103     -118.773178      -39.103310
 H         -45.973228     -119.273453      -40.769665
 H         -44.227654     -117.691261      -39.916370
 H         -44.139263     -118.443642      -38.359455
