20
 generated by VMD
 C         -13.171741      -27.868891       -2.677927
 N         -13.973657      -27.253263       -3.166607
 H         -10.491288      -27.515154       -3.482083
 H          -9.580233      -26.680624       -4.698890
 C          -9.477309      -27.411877       -3.888675
 C          -8.898359      -28.738693       -4.302717
 C          -8.619971      -26.811474       -2.739820
 C          -7.491827      -28.494051       -4.920195
 C          -7.216439      -26.589453       -3.289442
 C          -6.645138      -27.868187       -3.826893
 H          -9.392782      -29.268543       -5.052858
 H          -8.887346      -29.517586       -3.456110
 H          -9.133888      -25.897043       -2.417809
 H          -8.672963      -27.430193       -1.815909
 H          -7.656716      -27.799759       -5.787889
 H          -7.132827      -29.437016       -5.377813
 H          -6.575754      -26.176065       -2.503987
 H          -7.179420      -25.824661       -4.106368
 H          -5.683063      -27.661642       -4.268528
 H          -6.562726      -28.572739       -2.981375
