20
 generated by VMD
 C         -68.445061     -185.564774      -67.103569
 N         -67.846199     -184.583588      -67.328812
 H         -68.913567     -188.327179      -64.591774
 H         -69.021919     -186.463257      -66.908096
 C         -69.418709     -187.931992      -63.690762
 C         -69.335098     -186.507645      -63.599209
 C         -70.433586     -188.705322      -62.938107
 C         -69.373367     -186.051071      -62.174835
 C         -70.577461     -188.134384      -61.526573
 C         -70.653770     -186.514038      -61.610634
 H         -70.059166     -186.026672      -64.220215
 H         -68.418030     -186.125000      -64.109200
 H         -71.312683     -188.888596      -63.516666
 H         -70.082649     -189.678711      -62.907391
 H         -69.270424     -184.939880      -62.162540
 H         -68.522362     -186.464203      -61.649750
 H         -69.693253     -188.328491      -60.945793
 H         -71.534050     -188.479462      -61.142056
 H         -71.393883     -186.241455      -62.438114
 H         -70.998199     -186.323120      -60.529442
