20
 generated by VMD
 C         -12.128631      -27.755974       -1.498223
 N         -11.838187      -26.741858       -1.846612
 H         -10.365470      -25.935595       -4.538365
 H          -8.963837      -25.740244       -5.450994
 C          -9.310767      -26.108147       -4.489356
 C          -9.003904      -27.552809       -4.238157
 C          -8.672503      -25.227932       -3.440173
 C          -7.546547      -27.810911       -4.147882
 C          -7.181158      -25.566504       -3.258734
 C          -6.962785      -27.089478       -3.010572
 H          -9.583899      -28.210428       -5.011893
 H          -9.540457      -27.882954       -3.366439
 H          -8.799868      -24.140965       -3.589864
 H          -9.228663      -25.380339       -2.496638
 H          -7.107939      -27.536648       -5.094768
 H          -7.281976      -28.868212       -4.135218
 H          -6.664186      -25.065777       -2.484762
 H          -6.621457      -25.333445       -4.153435
 H          -5.884702      -27.354912       -2.896712
 H          -7.449793      -27.345022       -2.081565
