20
 generated by VMD
 C         -27.764902      -86.664169      -26.783192
 N         -28.163347      -85.644936      -26.449751
 H         -30.890341      -86.138229      -25.519665
 H         -27.498730      -87.588936      -27.196362
 C         -31.847269      -86.506760      -25.645634
 C         -32.758514      -86.901909      -24.400171
 C         -32.003609      -87.171265      -27.010466
 C         -34.205254      -87.374802      -24.789274
 C         -33.485783      -87.403999      -27.193407
 C         -34.042820      -88.212120      -26.079123
 H         -32.904255      -86.014244      -23.738798
 H         -32.168999      -87.523827      -23.818211
 H         -31.570288      -86.526657      -27.759291
 H         -31.348732      -88.106895      -26.995813
 H         -34.847759      -86.649544      -25.238520
 H         -34.785500      -88.100067      -24.110149
 H         -33.636314      -87.914948      -28.135986
 H         -33.988537      -86.446442      -27.203354
 H         -35.047218      -88.550308      -26.343845
 H         -33.537083      -89.093681      -25.874821
