20
 generated by VMD
 C         -27.971804      -72.578308      -17.991838
 N         -28.135412      -73.585663      -17.390877
 H         -25.079123      -71.259552      -18.658382
 H         -27.659605      -71.658234      -18.419281
 C         -25.163908      -71.301170      -19.700375
 C         -24.313833      -72.243698      -20.506399
 C         -25.838154      -70.254631      -20.468790
 C         -25.230171      -72.718803      -21.777290
 C         -26.388651      -70.459755      -21.803938
 C         -25.695475      -71.554398      -22.592176
 H         -24.010054      -73.089569      -19.843330
 H         -23.336826      -71.758873      -20.908770
 H         -26.676571      -69.934647      -19.906158
 H         -25.136244      -69.405754      -20.416285
 H         -26.025208      -73.359352      -21.347399
 H         -24.656216      -73.379936      -22.445280
 H         -26.176998      -69.548714      -22.374641
 H         -27.450680      -70.728828      -21.760071
 H         -26.426434      -72.025055      -23.372286
 H         -24.965866      -71.101555      -23.278830
