20
 generated by VMD
 C         -69.896111     -184.512177      -66.271324
 N         -69.009430     -184.271652      -66.945000
 H         -69.734741     -183.513168      -63.184746
 H         -70.769020     -184.656815      -65.589508
 C         -68.944160     -183.644180      -62.464588
 C         -69.356049     -184.700882      -61.468895
 C         -68.145500     -182.424866      -62.075180
 C         -68.138290     -184.872025      -60.591881
 C         -66.855522     -182.973679      -61.426666
 C         -67.216972     -183.708939      -60.195953
 H         -69.551292     -185.751541      -61.867348
 H         -70.258278     -184.404083      -60.909866
 H         -67.830917     -181.859756      -62.873482
 H         -68.800484     -181.774750      -61.467499
 H         -67.495277     -185.761169      -60.990250
 H         -68.422798     -185.173721      -59.554935
 H         -66.257889     -182.112717      -61.104973
 H         -66.358299     -183.509811      -62.198414
 H         -66.394760     -183.979660      -59.636509
 H         -67.867416     -183.060944      -59.575150
