20
 generated by VMD
 C         -28.243216      -82.370735      -26.758266
 N         -27.381021      -83.137970      -27.015312
 H         -31.230688      -84.135330      -26.570553
 H         -28.932739      -81.656189      -26.356192
 C         -31.617613      -84.777916      -25.730587
 C         -31.070578      -84.648697      -24.384743
 C         -32.113995      -86.142677      -26.228115
 C         -32.138168      -85.196770      -23.358738
 C         -33.125984      -86.696556      -25.148973
 C         -32.497387      -86.668694      -23.766804
 H         -31.048214      -83.568726      -24.045843
 H         -29.984522      -85.071663      -24.412073
 H         -32.812351      -85.976273      -27.100716
 H         -31.275362      -86.768089      -26.512289
 H         -32.971661      -84.510002      -23.431519
 H         -31.870049      -85.131721      -22.228596
 H         -33.461601      -87.747986      -25.264067
 H         -33.956291      -86.052589      -25.189877
 H         -33.100178      -87.081444      -22.975569
 H         -31.542450      -87.020447      -23.738314
