20
 generated by VMD
 C         -38.580414      -99.070816      -27.125252
 N         -37.669182      -98.954109      -26.398100
 H         -37.124596      -97.159958      -30.088449
 H         -39.322098      -99.109436      -27.876106
 C         -36.047520      -96.926605      -30.217314
 C         -35.472935      -97.480370      -31.502947
 C         -35.260040      -95.937454      -29.433748
 C         -34.455326      -96.526619      -32.236366
 C         -34.026226      -95.334511      -30.062372
 C         -33.449081      -95.897308      -31.359701
 H         -36.282063      -97.784462      -32.195450
 H         -35.039558      -98.455391      -31.329498
 H         -35.906364      -95.058502      -29.206038
 H         -34.891766      -96.392441      -28.502966
 H         -34.912209      -95.729660      -32.875080
 H         -33.977566      -97.307175      -32.855927
 H         -33.221760      -95.356949      -29.326904
 H         -34.343014      -94.335144      -30.229076
 H         -32.971714      -95.254417      -31.983715
 H         -32.746189      -96.715408      -30.927481
