20
 generated by VMD
 C         -39.973095     -107.377518      -37.820995
 N         -39.121208     -106.595383      -37.835579
 H         -39.155270     -108.615837      -35.122826
 H         -40.676983     -108.089668      -37.486320
 C         -39.677719     -109.060806      -34.334766
 C         -38.952347     -110.109795      -33.458942
 C         -41.221863     -108.975586      -34.196358
 C         -39.745640     -110.953659      -32.417679
 C         -41.791664     -109.632950      -32.966408
 C         -41.226383     -111.072479      -32.824993
 H         -38.165821     -109.485832      -32.881992
 H         -38.371471     -110.780449      -34.204185
 H         -41.506695     -107.946976      -34.105682
 H         -41.733021     -109.293129      -35.097046
 H         -39.635490     -110.455376      -31.512146
 H         -39.279812     -111.922188      -32.147720
 H         -42.889709     -109.831451      -33.098255
 H         -41.514236     -109.067314      -32.019886
 H         -41.840557     -111.653885      -31.993694
 H         -41.346733     -111.720917      -33.692635
