20
 generated by VMD
 C         -59.755291     -157.568710      -56.732651
 N         -59.218742     -158.545044      -56.667126
 H         -60.504116     -157.750885      -52.938709
 H         -60.281895     -156.677567      -56.898796
 C         -59.712063     -158.432800      -52.659523
 C         -58.338238     -158.106812      -52.274933
 C         -60.230103     -159.793442      -53.019848
 C         -57.833893     -159.259583      -51.317261
 C         -59.670807     -160.903183      -52.125336
 C         -58.078121     -160.700409      -51.819447
 H         -58.389851     -157.031845      -51.892467
 H         -57.698093     -158.005783      -53.156124
 H         -61.296616     -159.735168      -52.974365
 H         -59.895699     -159.969589      -54.076942
 H         -58.416176     -158.955963      -50.394703
 H         -56.768120     -159.152756      -51.076889
 H         -59.907356     -161.976181      -52.395321
 H         -60.068085     -160.700974      -51.136688
 H         -57.806320     -161.514496      -51.054276
 H         -57.446220     -160.951172      -52.752918
