20
 generated by VMD
 C         -23.692587      -69.033867      -16.557137
 N         -23.646402      -69.831100      -15.723879
 H         -23.780813      -66.407097      -19.186943
 H         -23.886433      -68.472015      -17.391863
 C         -24.414028      -67.169334      -19.420555
 C         -23.944565      -67.903015      -20.694994
 C         -25.901907      -67.104599      -19.189859
 C         -24.505379      -69.339104      -20.795374
 C         -26.441544      -68.574112      -19.320286
 C         -26.044580      -69.402023      -20.620611
 H         -22.853745      -67.731796      -20.803846
 H         -24.386787      -67.175827      -21.533867
 H         -26.120186      -66.795815      -18.212183
 H         -26.355997      -66.539001      -19.864698
 H         -24.017513      -70.009102      -20.066378
 H         -24.168316      -69.679474      -21.815115
 H         -27.526192      -68.605774      -19.290991
 H         -26.106926      -69.064064      -18.412844
 H         -26.270739      -70.450272      -20.538765
 H         -26.369936      -69.043083      -21.561979
