20
 generated by VMD
 C          -1.859873       -8.590879        0.374542
 N          -2.153198       -9.157220       -0.552194
 H          -2.753995      -10.126362        2.467757
 H          -1.939493      -11.121884        3.652364
 C          -2.859126      -11.129299        3.047733
 C          -2.922348      -12.218030        1.997338
 C          -4.113386      -11.120000        3.981512
 C          -3.268118      -13.594333        2.561138
 C          -4.374614      -12.565532        4.582172
 C          -4.545157      -13.495378        3.408465
 H          -2.000095      -12.145597        1.440182
 H          -3.661585      -11.826532        1.251418
 H          -4.011675      -10.479932        4.866098
 H          -5.083231      -10.855273        3.404834
 H          -2.367318      -13.935488        3.136421
 H          -3.304248      -14.326607        1.742240
 H          -5.245360      -12.511799        5.182130
 H          -3.528243      -12.847312        5.184037
 H          -4.872124      -14.483948        3.664580
 H          -5.266104      -13.074692        2.732226
