20
 generated by VMD
 C         -46.746349     -124.686150      -37.388485
 N         -46.910049     -124.717094      -36.257435
 H         -44.658020     -121.991119      -37.778389
 H         -46.467648     -124.709915      -38.459156
 C         -44.623306     -121.954201      -38.844162
 C         -43.404873     -122.250458      -39.613331
 C         -45.928459     -121.415741      -39.477837
 C         -43.653427     -122.273422      -41.153801
 C         -46.033234     -121.557312      -40.920765
 C         -44.752197     -121.457932      -41.734135
 H         -43.021542     -123.157684      -39.142857
 H         -42.777550     -121.452339      -39.457859
 H         -46.759026     -121.863106      -39.064037
 H         -46.065670     -120.336266      -39.277576
 H         -43.768738     -123.361671      -41.409966
 H         -42.699455     -122.163895      -41.808033
 H         -46.723732     -120.863899      -41.443428
 H         -46.392845     -122.661629      -41.171684
 H         -44.873852     -121.721283      -42.816322
 H         -44.378975     -120.476028      -41.683113
