20
 generated by VMD
 C         -60.165089     -156.232620      -55.339840
 N         -60.481007     -155.122101      -55.454613
 H         -59.902714     -157.726120      -52.178314
 H         -59.869602     -157.253738      -55.164776
 C         -58.870083     -157.549301      -52.089302
 C         -58.322319     -156.173630      -52.221710
 C         -57.995491     -158.759842      -51.833611
 C         -57.140541     -155.925613      -51.199017
 C         -57.052486     -158.508667      -50.684116
 C         -56.196789     -157.123871      -51.047356
 H         -59.080109     -155.319916      -52.045818
 H         -57.759964     -156.048141      -53.157227
 H         -58.748558     -159.521164      -51.585938
 H         -57.434139     -158.964447      -52.717651
 H         -57.661869     -155.857819      -50.214615
 H         -56.560783     -154.918915      -51.285831
 H         -56.340508     -159.324722      -50.562931
 H         -57.577377     -158.374588      -49.747284
 H         -55.560459     -156.896118      -50.277798
 H         -55.632412     -157.356171      -52.029453
