20
 generated by VMD
 C         -57.831631     -167.942810      -55.192024
 N         -56.756393     -168.327789      -54.925610
 H         -61.158329     -166.551971      -55.670712
 H         -58.762844     -167.630859      -55.593315
 C         -62.158260     -166.445816      -56.021317
 C         -62.572262     -167.333572      -57.152199
 C         -63.001755     -165.318817      -55.525188
 C         -64.006897     -167.407379      -57.386429
 C         -64.469627     -165.564346      -55.873627
 C         -64.680878     -166.043396      -57.271576
 H         -62.341019     -168.460754      -57.128906
 H         -62.089680     -167.119980      -58.005592
 H         -62.901115     -165.356125      -54.346363
 H         -62.533680     -164.396103      -55.908058
 H         -64.444214     -168.096008      -56.586842
 H         -64.306190     -167.874268      -58.364342
 H         -65.066849     -164.729111      -55.574532
 H         -64.874481     -166.256317      -55.126087
 H         -65.728264     -166.101410      -57.548771
 H         -64.150757     -165.429611      -57.973732
