20
 generated by VMD
 C         -27.913040      -82.927376      -27.360601
 N         -27.187973      -83.426712      -26.576328
 H         -31.332520      -84.357285      -26.497356
 H         -28.565603      -82.462265      -28.079367
 C         -31.879305      -85.037056      -25.751564
 C         -31.478090      -84.997490      -24.362469
 C         -32.197079      -86.353821      -26.358448
 C         -32.549694      -85.687706      -23.459148
 C         -33.296440      -87.069496      -25.532331
 C         -32.804424      -87.100281      -24.019743
 H         -31.658459      -83.906487      -24.093727
 H         -30.456398      -85.324921      -24.398308
 H         -32.589710      -86.115097      -27.352139
 H         -31.272305      -86.941093      -26.511812
 H         -33.351074      -84.978569      -23.411116
 H         -32.316380      -85.731514      -22.402191
 H         -33.504478      -88.138016      -25.844469
 H         -34.279236      -86.483315      -25.536715
 H         -33.505089      -87.825417      -23.549404
 H         -31.884676      -87.539024      -24.212299
