20
 generated by VMD
 C         -13.007763      -30.192781       -8.357892
 N         -13.869154      -30.431108       -9.018829
 H         -10.945445      -31.008886       -5.133757
 H         -10.932153      -31.543207       -3.577025
 C         -10.782998      -31.886946       -4.543450
 C          -9.363752      -32.498257       -4.791179
 C         -11.932669      -32.924641       -4.895261
 C          -9.293142      -33.876926       -4.213818
 C         -11.795256      -34.288471       -4.259830
 C         -10.410596      -34.854240       -4.482069
 H          -8.609767      -31.857744       -4.475130
 H          -9.314014      -32.552021       -5.892671
 H         -12.929354      -32.475193       -4.695191
 H         -11.885174      -33.039852       -6.006536
 H          -9.146872      -33.780918       -3.084772
 H          -8.359091      -34.302799       -4.647702
 H         -12.497479      -35.062382       -4.727281
 H         -11.983676      -34.242645       -3.206264
 H         -10.324993      -35.815281       -3.880098
 H         -10.278851      -35.234371       -5.495176
