20
 generated by VMD
 C         -11.261523      -38.906036       -6.555051
 N         -11.925323      -38.633190       -7.426949
 H         -12.773516      -41.577744       -8.996218
 H         -13.693619      -40.363029       -8.296357
 C         -13.779461      -41.180553       -8.886586
 C         -14.510104      -42.230236       -8.053712
 C         -14.389111      -40.882820      -10.222466
 C         -15.873389      -41.680672       -7.870951
 C         -15.849032      -40.586491      -10.109692
 C         -16.579893      -41.547012       -9.158340
 H         -13.989359      -42.337425       -7.081994
 H         -14.501166      -43.087616       -8.697905
 H         -13.809290      -39.993465      -10.567337
 H         -14.204136      -41.780396      -10.817729
 H         -15.781199      -40.703556       -7.415946
 H         -16.486004      -42.384735       -7.253210
 H         -16.331701      -40.501858      -11.046049
 H         -16.085716      -39.549496       -9.678076
 H         -17.610054      -41.175701       -9.066767
 H         -16.732365      -42.541546       -9.592142
