20
 generated by VMD
 C         -50.773945     -129.761292      -46.185322
 N         -50.867794     -130.288986      -45.175533
 H         -48.079224     -131.848083      -44.466972
 H         -50.949703     -129.644119      -47.252525
 C         -47.861847     -131.822830      -43.352325
 C         -48.172844     -133.023071      -42.527836
 C         -48.001167     -130.600647      -42.659885
 C         -47.714317     -133.047455      -41.106735
 C         -47.356499     -130.525284      -41.183666
 C         -47.914181     -131.712265      -40.358215
 H         -47.869392     -133.893814      -43.043873
 H         -49.355839     -133.123459      -42.445263
 H         -47.543961     -129.765671      -43.386005
 H         -49.082264     -130.380157      -42.558838
 H         -46.632648     -133.193359      -41.047039
 H         -48.280342     -133.755081      -40.493420
 H         -47.681435     -129.570526      -40.984402
 H         -46.248409     -130.546265      -41.407261
 H         -47.710072     -131.754913      -39.252979
 H         -48.992523     -131.460266      -40.322083
