20
 generated by VMD
 C         -12.721880      -30.100929       -8.348383
 N         -13.659580      -30.673939       -8.153166
 H         -11.010597      -30.808586       -5.396402
 H         -10.860985      -31.292803       -3.661411
 C         -10.850672      -31.620337       -4.663180
 C          -9.483415      -32.197254       -4.950232
 C         -11.974183      -32.585831       -4.747950
 C          -9.117005      -33.590706       -4.329656
 C         -11.639830      -33.948471       -4.168048
 C         -10.322918      -34.555023       -4.585563
 H          -8.677835      -31.510134       -4.734595
 H          -9.372211      -32.282715       -6.052071
 H         -12.940266      -32.227859       -4.345079
 H         -12.172256      -32.776634       -5.811584
 H          -8.979296      -33.473106       -3.189374
 H          -8.119550      -33.999168       -4.690377
 H         -12.437681      -34.658539       -4.446590
 H         -11.757345      -33.920547       -3.036559
 H         -10.292140      -35.507256       -4.064369
 H         -10.390628      -34.771168       -5.673568
