20
 generated by VMD
 C         -20.583471      -64.435013      -16.932566
 N         -19.579638      -64.205025      -16.363979
 H         -24.115555      -63.239376      -17.559103
 H         -21.379099      -64.855705      -17.399115
 C         -24.514702      -64.242310      -17.798664
 C         -24.657185      -64.622444      -19.325348
 C         -24.681004      -65.280167      -16.756460
 C         -24.740023      -66.151695      -19.636568
 C         -24.595308      -66.732346      -17.398602
 C         -25.478258      -66.927666      -18.617050
 H         -23.871838      -64.280182      -19.947264
 H         -25.565290      -64.032402      -19.618025
 H         -23.919258      -65.230812      -15.848145
 H         -25.681328      -65.154449      -16.166185
 H         -23.668627      -66.545044      -19.723667
 H         -25.262602      -66.345909      -20.660717
 H         -24.930256      -67.414436      -16.612177
 H         -23.504038      -67.005676      -17.606485
 H         -25.631659      -67.962456      -18.895287
 H         -26.515003      -66.383133      -18.450615
