20
 generated by VMD
 C         -41.439129     -120.188538      -33.997158
 N         -42.059067     -121.081131      -34.484669
 H         -43.392143     -119.112259      -37.297577
 H         -41.114525     -119.444893      -33.333267
 C         -43.955853     -118.888329      -38.191143
 C         -43.080532     -118.625069      -39.412155
 C         -45.351383     -118.263916      -38.066341
 C         -43.949661     -118.815491      -40.658463
 C         -46.100594     -118.313736      -39.363846
 C         -45.189758     -117.978378      -40.590057
 H         -42.334080     -119.346886      -39.518127
 H         -42.881443     -117.533958      -39.459949
 H         -45.828144     -118.698311      -37.226337
 H         -45.371937     -117.164604      -37.948612
 H         -44.175110     -119.871735      -40.857147
 H         -43.403355     -118.525139      -41.515469
 H         -47.039673     -117.632446      -39.288681
 H         -46.452198     -119.441589      -39.617500
 H         -45.847641     -118.152916      -41.447067
 H         -44.755905     -116.903458      -40.475536
