20
 generated by VMD
 C         -10.354640      -35.756489       -8.162051
 N         -10.112078      -35.673412       -9.232222
 H         -13.388328      -37.191612       -6.731686
 H         -14.708474      -37.904388       -5.768791
 C         -14.067289      -38.019394       -6.700434
 C         -13.150314      -39.221210       -6.686123
 C         -15.025352      -38.032589       -7.920578
 C         -13.849702      -40.489914       -6.900701
 C         -15.788440      -39.318993       -7.972134
 C         -14.819324      -40.449928       -8.050200
 H         -12.618329      -39.155350       -5.714221
 H         -12.418953      -39.071552       -7.539960
 H         -15.746530      -37.214878       -7.882747
 H         -14.429385      -38.061951       -8.823584
 H         -14.411042      -40.743168       -6.060435
 H         -13.113241      -41.265556       -7.156173
 H         -16.453022      -39.360310       -8.807014
 H         -16.371019      -39.374928       -7.037261
 H         -15.303658      -41.406727       -8.086858
 H         -14.259900      -40.372570       -8.978035
