20
 generated by VMD
 C         -39.998672     -105.657059      -37.027084
 N         -40.208092     -106.671280      -37.540535
 H         -38.921520     -107.631104      -34.743748
 H         -39.705860     -104.867149      -36.332993
 C         -39.204693     -108.505058      -34.198078
 C         -38.354073     -109.335350      -33.143147
 C         -40.683010     -109.085052      -34.489460
 C         -39.217419     -109.593918      -31.908283
 C         -41.405231     -109.252243      -33.201416
 C         -40.576740     -110.175926      -32.224377
 H         -37.546425     -108.623535      -32.869427
 H         -38.118103     -110.261032      -33.619473
 H         -41.171993     -108.282326      -35.042053
 H         -40.562153     -109.981941      -35.205406
 H         -39.195312     -108.576614      -31.469852
 H         -38.757767     -110.363220      -31.155439
 H         -42.341660     -109.737694      -33.402027
 H         -41.597248     -108.330460      -32.758995
 H         -41.229069     -110.135605      -31.258713
 H         -40.533932     -111.161804      -32.562931
