20
 generated by VMD
 C         -77.828827     -203.217560      -69.594040
 N         -78.269135     -204.072083      -68.985817
 H         -75.483368     -202.154160      -67.424530
 H         -77.479904     -202.341782      -70.053711
 C         -74.877403     -201.612518      -68.131889
 C         -75.076607     -200.173920      -68.492737
 C         -73.839211     -202.352615      -68.849892
 C         -74.755920     -199.867630      -70.036087
 C         -73.051567     -201.710907      -69.900650
 C         -73.971909     -200.880936      -70.853264
 H         -74.378952     -199.600098      -67.835709
 H         -76.082100     -199.731827      -68.312920
 H         -73.140579     -202.822113      -68.084953
 H         -74.363037     -203.244949      -69.319420
 H         -74.054634     -199.012039      -70.088570
 H         -75.641685     -199.679138      -70.600204
 H         -72.662369     -202.568726      -70.456993
 H         -72.266190     -201.048172      -69.471359
 H         -73.269081     -200.327209      -71.520439
 H         -74.640923     -201.556702      -71.520950
