20
 generated by VMD
 C         -21.352234      -52.444645      -11.432492
 N         -21.420078      -52.892239      -10.369683
 H         -19.849199      -50.416798      -13.540850
 H         -21.035484      -52.006420      -12.224766
 C         -18.926920      -50.853588      -13.312601
 C         -18.346754      -51.863194      -14.246418
 C         -18.147825      -50.546051      -12.094170
 C         -16.762215      -51.989681      -14.312189
 C         -16.666687      -50.446648      -12.494981
 C         -16.098825      -51.772026      -12.969819
 H         -18.667263      -51.513008      -15.237221
 H         -18.829262      -52.846542      -14.121239
 H         -18.519361      -49.577839      -11.847414
 H         -18.298098      -51.262611      -11.250417
 H         -16.467497      -51.210583      -15.013681
 H         -16.475996      -52.964382      -14.721584
 H         -16.094261      -50.145859      -11.645200
 H         -16.490404      -49.721104      -13.313965
 H         -15.019339      -51.648762      -13.094851
 H         -16.258873      -52.609955      -12.285401
