20
 generated by VMD
 C         -10.466244      -39.896885       -6.834919
 N         -11.298494      -40.179924       -6.150995
 H         -13.578625      -40.735794       -9.114202
 H         -15.114928      -39.880142       -9.502439
 C         -14.668228      -40.878048       -9.335708
 C         -15.388455      -41.563030       -8.175146
 C         -14.684053      -41.709003      -10.570803
 C         -16.755404      -42.143192       -8.521009
 C         -16.099075      -42.073696      -10.982267
 C         -16.791525      -42.821716       -9.836761
 H         -15.488679      -40.925259       -7.334610
 H         -14.730951      -42.356213       -7.848429
 H         -14.165503      -41.235161      -11.367164
 H         -14.011873      -42.596962      -10.434094
 H         -17.561562      -41.403969       -8.406866
 H         -17.103937      -42.847950       -7.760224
 H         -16.085043      -42.833199      -11.867055
 H         -16.695814      -41.253380      -11.245004
 H         -17.830444      -42.972622      -10.136851
 H         -16.293148      -43.811516       -9.743355
