20
 generated by VMD
 C         -27.439463      -86.574440      -26.391010
 N         -28.501545      -86.276810      -26.866081
 H         -31.019196      -86.311920      -25.268339
 H         -26.540394      -86.970947      -26.091085
 C         -31.984726      -86.674286      -25.586102
 C         -32.770599      -87.326469      -24.520014
 C         -32.009018      -87.287193      -26.905926
 C         -34.241310      -87.398720      -25.009663
 C         -33.549500      -87.514267      -27.382444
 C         -34.371422      -88.272133      -26.256618
 H         -32.656479      -86.920715      -23.492458
 H         -32.396900      -88.391418      -24.364027
 H         -31.463610      -86.783463      -27.661289
 H         -31.552525      -88.304543      -26.840837
 H         -34.541264      -86.343178      -25.157049
 H         -34.906303      -87.847847      -24.202871
 H         -33.611183      -88.071495      -28.371058
 H         -33.922600      -86.527069      -27.478973
 H         -35.404659      -88.364716      -26.581327
 H         -33.964249      -89.268852      -26.368082
