20
 generated by VMD
 C         -31.800587      -75.992348      -24.143093
 N         -31.245913      -76.407227      -25.093092
 H         -29.589922      -77.587112      -22.436930
 H         -32.542507      -75.656181      -23.263988
 C         -28.609190      -77.960243      -22.150873
 C         -27.652788      -78.182922      -23.199312
 C         -28.268559      -78.365501      -20.800598
 C         -26.154591      -77.872322      -22.926105
 C         -26.873119      -77.925369      -20.440754
 C         -25.791941      -78.198792      -21.468369
 H         -27.958597      -77.561958      -24.001141
 H         -27.723978      -79.229706      -23.345818
 H         -28.997820      -77.964081      -19.973488
 H         -28.328699      -79.430534      -20.697758
 H         -25.985916      -76.804100      -23.151199
 H         -25.527687      -78.575340      -23.563231
 H         -26.549549      -78.348816      -19.468792
 H         -27.041870      -76.776711      -20.197092
 H         -24.780380      -77.931625      -21.062967
 H         -25.687376      -79.262970      -21.428318
