20
 generated by VMD
 C         -19.850374      -50.245949      -10.105919
 N         -20.108967      -51.235859       -9.505194
 H         -17.067112      -48.987133       -9.961676
 H         -19.969429      -49.373543      -10.696694
 C         -16.996187      -48.944050      -11.088481
 C         -15.860498      -49.813396      -11.619223
 C         -17.705568      -47.939545      -12.002454
 C         -16.286287      -50.307789      -13.042985
 C         -17.806770      -48.309845      -13.477441
 C         -16.535519      -49.020428      -13.866167
 H         -15.785230      -50.676281      -10.956461
 H         -14.939431      -49.240353      -11.678245
 H         -18.670378      -47.692535      -11.566145
 H         -17.042326      -47.071590      -11.955693
 H         -17.178127      -50.909508      -13.012775
 H         -15.441485      -50.833038      -13.458354
 H         -17.933382      -47.376232      -14.135341
 H         -18.644133      -48.935101      -13.651863
 H         -16.447981      -49.277164      -14.889192
 H         -15.716237      -48.325314      -13.800691
