20
 generated by VMD
 C         -11.558139      -41.891041       -6.119358
 N         -10.908870      -41.440880       -6.888363
 H         -14.615465      -41.262821       -8.409506
 H         -15.390501      -40.569504       -9.750611
 C         -15.310963      -41.505886       -9.242618
 C         -16.656845      -41.938675       -8.723492
 C         -14.535796      -42.494404      -10.200351
 C         -17.535984      -42.481030       -9.803625
 C         -15.554684      -42.913349      -11.245945
 C         -16.760687      -43.568138      -10.587737
 H         -17.150852      -41.162468       -8.214369
 H         -16.496183      -42.759937       -8.050563
 H         -13.701201      -41.960468      -10.673595
 H         -14.232737      -43.328285       -9.583664
 H         -17.737240      -41.561871      -10.420087
 H         -18.415255      -42.995857       -9.375419
 H         -15.028770      -43.568153      -11.922502
 H         -15.887536      -42.042564      -11.925595
 H         -17.362759      -44.080921      -11.355971
 H         -16.517027      -44.420670       -9.867573
