20
 generated by VMD
 C          -1.890881      -16.670153        2.256119
 N          -1.536372      -17.520847        2.884352
 H          -5.153874      -16.550709        0.668490
 H          -4.790147      -17.835039       -0.441530
 C          -5.634146      -17.324392        0.051507
 C          -6.361694      -16.576580       -1.080068
 C          -6.555991      -18.290834        0.783334
 C          -7.149839      -17.440506       -2.027755
 C          -7.173143      -19.193253       -0.278718
 C          -8.088562      -18.387325       -1.205895
 H          -5.568304      -15.978052       -1.568509
 H          -7.024994      -15.843616       -0.624386
 H          -6.012041      -18.840578        1.479545
 H          -7.318957      -17.820404        1.297321
 H          -6.490752      -18.086033       -2.697665
 H          -7.820767      -16.773737       -2.639668
 H          -7.821635      -19.964649        0.203039
 H          -6.384998      -19.691292       -0.812512
 H          -8.557306      -19.077511       -1.901135
 H          -8.846145      -17.801449       -0.649823
