20
 generated by VMD
 C         -19.928555      -50.103905       -9.466558
 N         -19.734713      -51.207546       -9.659591
 H         -16.921370      -48.508739      -10.096257
 H         -20.468010      -48.926800       -9.428928
 C         -16.651003      -48.378319      -11.108150
 C         -15.564946      -49.270203      -11.665870
 C         -17.433630      -47.476910      -11.989861
 C         -16.242571      -50.037956      -12.839586
 C         -17.941641      -48.127384      -13.305789
 C         -16.746296      -49.019333      -13.842480
 H         -15.198666      -49.912590      -10.875816
 H         -14.732740      -48.698467      -12.114267
 H         -18.338749      -47.230049      -11.449982
 H         -16.903280      -46.576717      -12.235524
 H         -17.072498      -50.669678      -12.466524
 H         -15.516176      -50.722607      -13.315320
 H         -18.198454      -47.327732      -14.030044
 H         -18.825821      -48.706314      -13.125799
 H         -16.961584      -49.516762      -14.835134
 H         -15.945994      -48.228409      -14.085431
