20
 generated by VMD
 C         -19.941917      -59.906734      -17.676844
 N         -19.476187      -58.927444      -18.113222
 H         -23.253092      -59.736305      -15.960982
 H         -20.344263      -60.562935      -17.039898
 C         -23.045395      -60.822002      -15.985509
 C         -23.139254      -61.553936      -17.277130
 C         -22.993172      -61.457237      -14.631270
 C         -22.937901      -63.064034      -17.285297
 C         -22.703470      -62.913166      -14.756224
 C         -23.211763      -63.695160      -15.916673
 H         -22.460335      -61.100700      -18.013287
 H         -24.080824      -61.257801      -17.725031
 H         -22.554369      -61.026367      -13.680696
 H         -24.023069      -61.304787      -14.277676
 H         -21.900028      -63.237656      -17.502211
 H         -23.656818      -63.531559      -17.996923
 H         -23.009211      -63.409111      -13.775043
 H         -21.588367      -63.021980      -14.648790
 H         -22.682461      -64.687889      -16.032106
 H         -24.311275      -63.907612      -15.820312
