20
 generated by VMD
 C         -31.851625      -76.160835      -24.352413
 N         -31.467016      -76.594933      -25.359352
 H         -29.652670      -77.588791      -22.462034
 H         -32.500351      -75.880539      -23.577620
 C         -28.592056      -77.875191      -22.203068
 C         -27.578928      -78.157227      -23.297668
 C         -28.367634      -78.451088      -20.816689
 C         -26.153913      -77.960953      -22.758663
 C         -26.951746      -78.305496      -20.422754
 C         -25.919865      -78.794487      -21.478270
 H         -27.796358      -77.463196      -24.129745
 H         -27.697086      -79.009605      -23.944212
 H         -28.919592      -77.731155      -20.274071
 H         -28.936340      -79.422295      -20.550068
 H         -25.989983      -76.881241      -22.480982
 H         -25.471609      -78.271492      -23.547628
 H         -26.843513      -78.942368      -19.567770
 H         -26.694859      -77.311111      -20.153692
 H         -24.904510      -78.601540      -21.190105
 H         -26.191240      -79.843948      -21.732122
