20
 generated by VMD
 C         -67.467346     -191.678757      -66.341324
 N         -66.891098     -191.422623      -67.288574
 H         -70.187180     -190.026199      -66.267433
 H         -68.160164     -192.073441      -65.565445
 C         -71.023285     -190.044937      -65.557526
 C         -72.037163     -191.137985      -65.831413
 C         -71.070862     -189.176193      -64.316551
 C         -73.322701     -191.031326      -64.923004
 C         -72.425499     -189.137405      -63.502918
 C         -73.075569     -190.538895      -63.558865
 H         -71.552139     -192.040710      -65.493050
 H         -72.243942     -191.384827      -66.832939
 H         -70.187981     -189.322235      -63.646141
 H         -70.791077     -188.160568      -64.632820
 H         -73.770561     -192.068497      -64.972275
 H         -73.977364     -190.267548      -65.364876
 H         -73.068062     -188.357468      -64.029526
 H         -72.087860     -188.809158      -62.497135
 H         -72.680679     -191.363007      -62.953949
 H         -73.964890     -190.331161      -62.967007
