20
 generated by VMD
 C         -63.405487     -174.514740      -56.565670
 N         -62.542812     -175.200302      -56.252281
 H         -66.511490     -173.240768      -58.189800
 H         -64.269623     -173.964828      -56.856773
 C         -65.631348     -172.576218      -58.525040
 C         -65.793892     -171.039719      -58.395481
 C         -64.691460     -173.028687      -59.724468
 C         -64.403114     -170.452530      -58.181137
 C         -63.318340     -172.329620      -59.628689
 C         -63.210594     -170.812607      -59.137112
 H         -66.473038     -170.832825      -57.637108
 H         -66.275116     -170.718719      -59.451324
 H         -64.566551     -174.202545      -59.764236
 H         -65.191910     -172.641739      -60.662197
 H         -63.953693     -170.682877      -57.152855
 H         -64.392525     -169.329773      -58.242943
 H         -62.792522     -172.496521      -60.568577
 H         -62.590557     -172.831085      -58.947639
 H         -62.261856     -170.532333      -58.640518
 H         -63.285065     -170.027496      -59.990295
