20
 generated by VMD
 C         -19.183655      -61.466141      -16.297918
 N         -19.936117      -60.570847      -16.397579
 H         -22.146999      -62.544350      -18.347704
 H         -18.561447      -62.461277      -16.168652
 C         -23.033159      -62.980576      -17.856497
 C         -24.073111      -63.556694      -18.748625
 C         -22.953800      -63.223557      -16.307726
 C         -24.776577      -64.818535      -18.293055
 C         -23.639395      -64.572540      -16.027382
 C         -24.915081      -64.774063      -16.733469
 H         -23.750565      -63.695560      -19.771160
 H         -24.848068      -62.738113      -18.888048
 H         -21.949265      -63.250069      -15.896906
 H         -23.474514      -62.282158      -15.892587
 H         -24.295128      -65.807739      -18.573257
 H         -25.872009      -64.858215      -18.687489
 H         -23.875431      -64.517281      -14.980943
 H         -22.981390      -65.434166      -16.009926
 H         -25.513977      -65.557556      -16.381388
 H         -25.632446      -63.921146      -16.654015
