20
 generated by VMD
 C         -76.161118     -202.803146      -66.454590
 N         -76.975441     -203.184647      -65.713699
 H         -75.446732     -200.553940      -68.625633
 H         -75.583961     -202.471191      -67.321342
 C         -74.893211     -199.758728      -69.109543
 C         -74.786774     -198.304779      -68.652031
 C         -73.738251     -200.124512      -69.835068
 C         -73.324471     -197.760223      -68.576897
 C         -73.305931     -199.039001      -70.739426
 C         -72.754082     -197.807602      -69.974373
 H         -75.278687     -198.187134      -67.651985
 H         -75.355057     -197.591339      -69.393669
 H         -72.870682     -200.384644      -69.106689
 H         -73.973946     -201.000015      -70.509422
 H         -72.698410     -198.462860      -68.006470
 H         -73.126266     -196.885635      -67.988235
 H         -74.228134     -198.887619      -71.285713
 H         -72.579948     -199.313629      -71.451050
 H         -71.663597     -197.690231      -69.918961
 H         -73.080124     -196.933624      -70.525826
