20
 generated by VMD
 C         -11.590160      -41.517082       -6.848715
 N         -11.491592      -42.417465       -6.170973
 H         -14.708371      -42.474941       -8.342524
 H         -15.189266      -41.412121       -9.491957
 C         -15.287497      -42.443298       -9.187140
 C         -16.786860      -42.709145       -8.877623
 C         -14.786065      -43.447510      -10.197680
 C         -17.609299      -42.497513      -10.159117
 C         -15.549901      -43.465572      -11.545375
 C         -17.110146      -43.364708      -11.314917
 H         -17.073473      -41.947376       -8.161062
 H         -16.974918      -43.686283       -8.518611
 H         -13.727340      -43.320141      -10.334814
 H         -14.809847      -44.417908       -9.730284
 H         -17.611139      -41.462742      -10.491621
 H         -18.676155      -42.682819       -9.898543
 H         -15.297714      -44.386177      -12.198493
 H         -15.226756      -42.647861      -12.139826
 H         -17.580372      -43.188404      -12.318429
 H         -17.407114      -44.385368      -11.029406
