20
 generated by VMD
 C         -58.431416     -160.368973      -56.905293
 N         -58.650211     -159.839493      -57.971928
 H         -59.017406     -163.612686      -54.959747
 H         -58.344105     -160.820297      -55.905815
 C         -59.708153     -163.188995      -54.246986
 C         -59.378830     -163.170929      -52.802055
 C         -61.128910     -163.408859      -54.643967
 C         -60.406147     -162.250748      -52.102962
 C         -61.883083     -162.180649      -54.150898
 C         -61.855259     -162.174362      -52.650963
 H         -58.372093     -162.876740      -52.565395
 H         -59.454540     -164.140610      -52.456192
 H         -61.212158     -163.530350      -55.804317
 H         -61.525967     -164.370529      -54.321423
 H         -60.010223     -161.329987      -52.243965
 H         -60.503490     -162.490311      -51.009716
 H         -62.957439     -162.346878      -54.414967
 H         -61.395340     -161.376419      -54.804016
 H         -62.382961     -161.297729      -52.230824
 H         -62.358105     -163.009186      -52.240623
