20
 generated by VMD
 C         -12.636506      -27.649948       -1.592129
 N         -11.748477      -27.061815       -1.887608
 H         -10.461626      -26.082729       -4.421844
 H          -9.091078      -25.718048       -5.516872
 C          -9.338256      -26.118912       -4.541749
 C          -9.045737      -27.670256       -4.511029
 C          -8.641488      -25.372114       -3.419768
 C          -7.535741      -28.031061       -4.146544
 C          -7.148140      -25.709463       -3.259438
 C          -6.965846      -27.192854       -2.958921
 H          -9.339478      -28.028774       -5.552034
 H          -9.569865      -28.166767       -3.699572
 H          -8.686261      -24.280731       -3.627730
 H          -9.176841      -25.549387       -2.508290
 H          -6.875915      -27.776201       -4.972038
 H          -7.513780      -29.047792       -3.796497
 H          -6.858593      -25.113064       -2.406342
 H          -6.741215      -25.360714       -4.188217
 H          -5.889214      -27.437189       -2.873360
 H          -7.517252      -27.485294       -2.039845
