20
 generated by VMD
 C         -49.383339     -127.469795      -39.423176
 N         -50.446064     -127.376472      -39.921982
 H         -47.122345     -127.102898      -42.449471
 H         -48.299419     -127.499619      -39.226952
 C         -46.300819     -126.530075      -42.002892
 C         -45.530170     -127.161171      -40.822292
 C         -46.583050     -124.991615      -42.078503
 C         -44.428291     -126.160156      -40.414646
 C         -45.345036     -124.260674      -41.542614
 C         -44.927700     -124.735237      -40.192448
 H         -45.087376     -128.168579      -41.114746
 H         -46.193966     -127.162941      -39.999893
 H         -46.622395     -124.713539      -43.121914
 H         -47.406673     -124.716141      -41.360840
 H         -43.687378     -126.051880      -41.249836
 H         -43.904778     -126.447487      -39.474003
 H         -45.611137     -123.086540      -41.573212
 H         -44.444820     -124.385307      -42.221935
 H         -44.005390     -124.156387      -39.978470
 H         -45.603424     -124.652901      -39.374374
