20
 generated by VMD
 C         -77.627029     -203.076889      -69.496689
 N         -78.042725     -203.953186      -68.864304
 H         -75.452484     -201.901001      -67.372070
 H         -77.234703     -202.382309      -70.217613
 C         -74.878059     -201.584320      -68.230637
 C         -75.150070     -200.102417      -68.576736
 C         -73.862862     -202.489075      -68.835709
 C         -74.725395     -199.726807      -69.986305
 C         -73.076591     -201.743073      -69.913589
 C         -74.065941     -200.722351      -70.765419
 H         -74.670860     -199.464615      -67.800354
 H         -76.182281     -199.877884      -68.504181
 H         -73.210304     -202.800552      -68.049866
 H         -74.418983     -203.355438      -69.279510
 H         -74.271950     -198.716644      -69.889053
 H         -75.734825     -199.536865      -70.494255
 H         -72.734772     -202.588516      -70.513954
 H         -72.171074     -201.240280      -69.587387
 H         -73.449806     -200.309341      -71.595078
 H         -74.750786     -201.346436      -71.203712
