20
 generated by VMD
 C         -13.085587      -28.787359       -6.242624
 N         -13.125592      -28.765587       -7.358778
 H         -12.030261      -30.821218       -5.171589
 H         -10.632741      -29.691423       -4.725592
 C         -11.018610      -30.753862       -4.758320
 C         -10.136307      -31.630571       -5.598098
 C         -10.939515      -31.301798       -3.235749
 C          -8.696095      -31.641661       -5.138130
 C          -9.417249      -31.259382       -2.744169
 C          -8.550341      -32.072292       -3.697261
 H         -10.227556      -31.253988       -6.712561
 H         -10.349705      -32.662834       -5.640976
 H         -11.597696      -30.732981       -2.549399
 H         -11.270667      -32.390701       -3.248098
 H          -8.365986      -30.586056       -5.249399
 H          -8.077556      -32.290977       -5.835038
 H          -9.290180      -31.652813       -1.747351
 H          -9.128258      -30.182272       -2.694580
 H          -7.544037      -31.987135       -3.369074
 H          -8.977733      -33.092442       -3.659642
