20
 generated by VMD
 C         -23.270872      -53.507893      -14.325591
 N         -24.195265      -53.264874      -15.055822
 H         -20.727329      -55.721828      -14.699445
 H         -22.226849      -53.613068      -13.905921
 C         -19.576006      -55.479378      -14.604479
 C         -19.284803      -54.330982      -13.609175
 C         -18.520634      -56.371071      -14.975492
 C         -18.113958      -54.493942      -12.712164
 C         -17.908026      -56.843315      -13.698277
 C         -17.192410      -55.697300      -12.870681
 H         -20.201143      -54.034668      -13.081914
 H         -19.217117      -53.404968      -14.173785
 H         -19.014694      -57.154583      -15.554209
 H         -17.791656      -55.866558      -15.553470
 H         -18.483992      -54.517525      -11.648647
 H         -17.520636      -53.583424      -12.673989
 H         -17.224981      -57.680882      -13.835114
 H         -18.721064      -57.189461      -13.018609
 H         -16.893736      -56.067806      -11.858311
 H         -16.255552      -55.415634      -13.332949
