20
 generated by VMD
 C         -14.097100      -28.795860       -7.426214
 N         -13.308914      -28.959766       -8.194477
 H         -11.724140      -30.485838       -4.786854
 H         -10.346212      -29.875000       -3.977246
 C         -10.759685      -30.798138       -4.330597
 C          -9.924957      -31.385586       -5.522118
 C         -10.991542      -31.835545       -3.208156
 C          -8.681974      -32.151886       -5.024718
 C          -9.717708      -32.487736       -2.696079
 C          -8.880473      -33.119473       -3.816600
 H          -9.685703      -30.579416       -6.189579
 H         -10.560564      -32.155304       -6.140287
 H         -11.492888      -31.287994       -2.363383
 H         -11.741764      -32.592278       -3.537271
 H          -7.868957      -31.461765       -4.757390
 H          -8.290114      -32.831966       -5.763222
 H         -10.051340      -33.320515       -2.010627
 H          -9.089841      -31.841284       -2.090136
 H          -7.922344      -33.474861       -3.436717
 H          -9.331358      -33.968227       -4.227062
