20
 generated by VMD
 C         -79.793816     -206.899475      -73.361588
 N         -79.839157     -206.066086      -74.200905
 H         -78.295013     -205.139023      -70.412994
 H         -79.702934     -207.711624      -72.681282
 C         -77.298203     -205.535568      -70.323082
 C         -76.200447     -204.655518      -70.980934
 C         -76.912277     -206.883530      -69.566193
 C         -74.812424     -204.834229      -70.422310
 C         -75.430840     -207.003601      -69.197571
 C         -74.438744     -206.279175      -70.113083
 H         -76.398132     -203.589981      -70.644653
 H         -76.257103     -204.598206      -72.012970
 H         -77.357262     -206.832031      -68.542580
 H         -77.420700     -207.603302      -70.154068
 H         -74.645355     -204.330276      -69.480843
 H         -74.028709     -204.505234      -71.066895
 H         -75.124710     -208.012436      -69.233986
 H         -75.350311     -206.521637      -68.176247
 H         -73.356277     -206.258438      -69.842140
 H         -74.606064     -206.905853      -70.974426
