20
 generated by VMD
 C         -25.779686      -71.735840      -16.993259
 N         -26.614784      -72.423294      -16.559698
 H         -24.050852      -68.867783      -19.116695
 H         -24.891581      -71.132111      -17.460453
 C         -24.741692      -69.452820      -19.745068
 C         -24.159184      -70.680450      -20.443037
 C         -25.855345      -68.642235      -20.353613
 C         -25.110397      -71.503563      -21.128139
 C         -26.669437      -69.645859      -21.187407
 C         -25.943186      -70.605392      -22.044336
 H         -23.702742      -71.252205      -19.642883
 H         -23.318674      -70.258018      -20.839636
 H         -26.460064      -68.125443      -19.595823
 H         -25.465351      -67.916580      -20.971672
 H         -25.873756      -71.955261      -20.528650
 H         -24.679810      -72.283089      -21.804455
 H         -27.270184      -69.012856      -21.830851
 H         -27.218166      -70.131104      -20.445520
 H         -26.714188      -71.149200      -22.707397
 H         -25.345610      -70.055717      -22.827579
