20
 generated by VMD
 C         -30.309971      -74.837173      -21.033615
 N         -31.258890      -75.443024      -20.720991
 H         -27.132055      -75.029442      -19.423758
 H         -29.540421      -74.500938      -21.589489
 C         -26.840801      -74.711739      -20.442181
 C         -26.627392      -75.837791      -21.341793
 C         -26.003918      -73.415245      -20.442379
 C         -26.038177      -75.452888      -22.668812
 C         -25.447514      -73.030777      -21.780262
 C         -24.940840      -74.444511      -22.465124
 H         -27.482061      -76.450333      -21.455454
 H         -25.837353      -76.400337      -20.736605
 H         -26.454905      -72.574432      -19.984941
 H         -25.220001      -73.616432      -19.814032
 H         -26.762281      -74.932037      -23.347755
 H         -25.738445      -76.387108      -23.201029
 H         -24.755419      -72.190582      -21.960230
 H         -26.200546      -72.668549      -22.493399
 H         -24.595404      -74.310120      -23.481903
 H         -24.173574      -74.871201      -21.814611
