20
 generated by VMD
 C          -4.412450      -20.930109        2.586744
 N          -4.948210      -19.962589        2.753246
 H          -5.054554      -19.351728       -0.251441
 H          -6.148478      -20.682762       -0.423006
 C          -5.911686      -19.679708       -0.820478
 C          -5.600467      -19.762522       -2.266986
 C          -7.197287      -18.872412       -0.613932
 C          -6.704664      -20.488495       -3.021043
 C          -8.421854      -19.711870       -1.171538
 C          -8.134660      -20.090624       -2.630488
 H          -4.638930      -20.240211       -2.407230
 H          -5.415584      -18.769474       -2.616771
 H          -7.443464      -18.670324        0.525607
 H          -7.250025      -17.832596       -1.046775
 H          -6.553547      -21.512142       -2.776044
 H          -6.660707      -20.363890       -4.113162
 H          -9.393185      -19.184469       -1.131415
 H          -8.559703      -20.605967       -0.601820
 H          -8.909798      -20.722675       -2.998686
 H          -8.276170      -19.179670       -3.221802
