20
 generated by VMD
 C         -40.076550     -100.737457      -30.870062
 N         -40.409214      -99.894432      -31.606441
 H         -37.397655     -103.111702      -31.241735
 H         -39.662304     -101.506393      -30.106758
 C         -36.581566     -102.317535      -31.248579
 C         -36.508636     -101.579315      -32.624638
 C         -35.750835     -101.783432      -30.022808
 C         -36.163052     -100.074249      -32.431007
 C         -35.543137     -100.291489      -29.927242
 C         -35.346493      -99.554779      -31.288172
 H         -37.492313     -101.720467      -33.131386
 H         -35.718174     -102.080063      -33.168888
 H         -36.287498     -102.131577      -29.132608
 H         -34.840775     -102.353973      -29.902794
 H         -37.113827      -99.473167      -32.269444
 H         -35.737244      -99.829391      -33.383720
 H         -34.685234     -100.168251      -29.314098
 H         -36.387280      -99.879669      -29.223608
 H         -35.408852      -98.494614      -31.036268
 H         -34.369835      -99.597832      -31.669298
