20
 generated by VMD
 C         -47.650040     -138.046097      -45.987804
 N         -47.274292     -137.505829      -47.009975
 H         -50.794548     -136.849747      -44.673954
 H         -47.864075     -138.344208      -44.980190
 C         -51.287991     -137.806992      -44.789673
 C         -51.343006     -138.512115      -46.098236
 C         -52.500431     -137.552490      -43.987541
 C         -52.269085     -139.644241      -46.100494
 C         -53.566185     -138.741638      -44.115013
 C         -53.701836     -139.197342      -45.538448
 H         -50.336079     -138.830536      -46.349457
 H         -51.762352     -137.702576      -46.859894
 H         -52.300632     -137.337540      -42.969818
 H         -52.944626     -136.720840      -44.498928
 H         -51.887215     -140.484039      -45.480442
 H         -52.320152     -139.965744      -47.175331
 H         -54.493099     -138.391174      -43.739094
 H         -53.152416     -139.546661      -43.576271
 H         -54.343277     -139.999161      -45.491062
 H         -54.243961     -138.447372      -46.117870
