20
 generated by VMD
 C         -49.942989     -128.542236      -43.312893
 N         -50.681335     -129.146378      -44.003811
 H         -48.724644     -128.356171      -40.075981
 H         -49.295208     -128.051422      -42.599438
 C         -47.700813     -128.204330      -40.308994
 C         -46.763596     -129.302689      -39.981800
 C         -47.430958     -126.956528      -40.988251
 C         -45.731625     -129.480133      -41.026081
 C         -46.388687     -127.195839      -42.090015
 C         -45.246616     -128.161011      -41.675167
 H         -47.419666     -130.087143      -39.762028
 H         -46.186745     -129.128296      -39.024590
 H         -48.288120     -126.610878      -41.586529
 H         -46.985664     -126.179680      -40.388874
 H         -46.130970     -130.208679      -41.785610
 H         -44.931065     -130.254135      -40.810188
 H         -46.046165     -126.173492      -42.491440
 H         -46.874680     -127.614876      -43.038422
 H         -44.663738     -128.527130      -42.527657
 H         -44.626438     -127.627708      -40.985065
