20
 generated by VMD
 C         -30.945549      -78.402519      -25.818302
 N         -31.299511      -77.510612      -25.135221
 H         -29.351208      -77.387024      -23.104631
 H         -30.650972      -79.357948      -26.093784
 C         -28.817665      -78.214653      -22.741144
 C         -27.335562      -78.243111      -23.022293
 C         -29.623716      -79.402084      -22.039232
 C         -26.595760      -79.401596      -22.382387
 C         -28.593393      -80.301605      -21.234434
 C         -27.415783      -80.635956      -22.068607
 H         -26.935204      -77.296745      -22.582129
 H         -27.107376      -78.241219      -24.101833
 H         -30.390120      -78.812004      -21.471085
 H         -30.035042      -79.941208      -22.848225
 H         -26.109602      -79.217918      -21.424496
 H         -25.775293      -79.625877      -23.049280
 H         -29.187998      -81.127281      -20.847534
 H         -28.271318      -79.767883      -20.307184
 H         -26.794924      -81.347626      -21.569263
 H         -27.745604      -81.109680      -22.931044
