20
 generated by VMD
 C         -11.527637      -33.734081       -9.076843
 N         -11.257624      -34.490360       -8.332062
 H         -11.496119      -37.052250       -8.001031
 H         -12.203914      -36.337917       -6.647614
 C         -12.242553      -37.200737       -7.259722
 C         -12.063314      -38.557476       -6.585453
 C         -13.667350      -37.054737       -7.879024
 C         -13.160261      -38.830673       -5.562648
 C         -14.714519      -37.279385       -6.823504
 C         -14.579630      -38.656807       -6.133307
 H         -11.118017      -38.517040       -6.027208
 H         -12.019199      -39.337311       -7.385130
 H         -13.760277      -36.083149       -8.270060
 H         -13.783353      -37.760078       -8.740238
 H         -13.095880      -38.071648       -4.745325
 H         -12.944864      -39.854675       -5.118837
 H         -15.666110      -37.186920       -7.208547
 H         -14.648915      -36.517540       -6.007077
 H         -15.333190      -38.846169       -5.372887
 H         -14.723042      -39.333561       -6.945940
