20
 generated by VMD
 C         -46.717892     -124.943535      -38.169998
 N         -47.239929     -124.552010      -37.213600
 H         -44.763515     -122.060516      -37.760063
 H         -46.312130     -125.240334      -39.086323
 C         -44.756531     -122.279663      -38.772396
 C         -43.539673     -122.582863      -39.508972
 C         -45.895855     -121.514259      -39.408520
 C         -43.863365     -122.940056      -40.963665
 C         -46.136913     -122.025391      -40.814167
 C         -44.814812     -121.995033      -41.561470
 H         -42.938255     -123.231773      -39.015709
 H         -43.079102     -121.567886      -39.544308
 H         -46.780228     -121.633377      -38.730904
 H         -45.674889     -120.486526      -39.399887
 H         -44.339657     -123.846634      -40.986290
 H         -43.014290     -123.113937      -41.642185
 H         -47.005001     -121.438087      -41.224884
 H         -46.615520     -123.071541      -40.648674
 H         -44.908264     -122.168030      -42.620560
 H         -44.386063     -120.955498      -41.522953
