20
 generated by VMD
 C         -31.494038      -77.836678      -26.412184
 N         -31.710775      -77.995247      -27.556324
 H         -29.508076      -78.991417      -23.538084
 H         -31.026453      -77.804642      -25.379902
 C         -28.987865      -79.866493      -23.012049
 C         -27.519260      -80.115028      -23.067287
 C         -29.905935      -81.038269      -22.900492
 C         -27.115416      -80.902405      -21.852549
 C         -29.477547      -81.799706      -21.693953
 C         -27.999090      -82.095146      -21.675461
 H         -27.039631      -79.124733      -23.143129
 H         -27.316565      -80.687248      -23.950537
 H         -30.971151      -80.644897      -22.607325
 H         -29.935364      -81.591652      -23.812538
 H         -27.368832      -80.309074      -20.960033
 H         -26.113785      -81.161980      -21.854582
 H         -29.948225      -82.725960      -21.503351
 H         -29.697809      -81.217453      -20.733057
 H         -27.670115      -82.541580      -20.707392
 H         -27.812586      -82.940895      -22.434227
