20
 generated by VMD
 C         -28.084763      -72.722176      -18.152546
 N         -28.465748      -73.582649      -17.487446
 H         -24.602781      -71.238998      -18.857227
 H         -27.770428      -71.760750      -18.756626
 C         -25.153179      -71.570984      -19.764999
 C         -24.642092      -72.725105      -20.506124
 C         -25.889126      -70.474869      -20.379700
 C         -24.975260      -72.808327      -22.026043
 C         -26.556395      -70.748253      -21.785200
 C         -25.579174      -71.546257      -22.674376
 H         -24.951527      -73.696838      -20.105465
 H         -23.428305      -72.725761      -20.371471
 H         -26.635218      -70.033653      -19.734451
 H         -25.221331      -69.658806      -20.606604
 H         -25.623590      -73.705154      -22.194851
 H         -24.037764      -73.173622      -22.476791
 H         -26.802252      -69.777878      -22.264854
 H         -27.498035      -71.398010      -21.677176
 H         -26.103310      -71.904602      -23.624060
 H         -24.764021      -70.999268      -23.113354
