20
 generated by VMD
 C         -69.595299     -181.189178      -61.204922
 N         -69.305595     -180.240845      -61.784309
 H         -67.350182     -179.179642      -59.618370
 H         -69.763367     -182.080200      -60.600456
 C         -66.348495     -178.791428      -59.789986
 C         -65.581940     -179.019394      -61.049385
 C         -65.679718     -177.783508      -58.840244
 C         -65.113930     -177.723969      -61.744949
 C         -65.186745     -176.533188      -59.501781
 C         -64.578110     -176.706024      -60.834621
 H         -66.122025     -179.553558      -61.849831
 H         -64.623535     -179.514618      -60.933975
 H         -66.474335     -177.657181      -58.054890
 H         -64.911652     -178.307724      -58.349602
 H         -66.095795     -177.154144      -62.078907
 H         -64.381783     -177.808853      -62.628021
 H         -64.507111     -176.070282      -58.782803
 H         -65.973892     -175.752762      -59.622604
 H         -64.458244     -175.836517      -61.494648
 H         -63.627102     -177.030762      -60.653988
