20
 generated by VMD
 C         -55.911491     -149.171219      -45.806541
 N         -55.606995     -149.990967      -45.086658
 H         -54.579124     -148.235870      -48.171219
 H         -56.059071     -148.455032      -46.564960
 C         -54.194656     -147.415161      -48.780457
 C         -53.083778     -147.453491      -49.842461
 C         -54.755745     -145.976059      -48.527103
 C         -53.532394     -146.732666      -51.111385
 C         -55.316765     -145.340790      -49.850140
 C         -54.056339     -145.318222      -50.810131
 H         -52.741356     -148.523376      -50.164597
 H         -52.317730     -146.807144      -49.462311
 H         -55.577854     -146.155060      -47.815769
 H         -54.114941     -145.387146      -47.988907
 H         -54.333763     -147.264343      -51.530956
 H         -52.818554     -146.610245      -51.902367
 H         -55.912029     -144.474487      -49.708145
 H         -56.010418     -146.119370      -50.330280
 H         -54.412193     -144.915619      -51.730305
 H         -53.280468     -144.665222      -50.313271
