20
 generated by VMD
 C         -48.467922     -135.670441      -46.308083
 N         -47.379139     -135.667542      -45.886009
 H         -52.016483     -134.855225      -45.510769
 H         -49.306156     -135.739883      -47.026188
 C         -51.681973     -135.768692      -45.174198
 C         -52.381100     -137.035461      -45.428165
 C         -51.259720     -135.556656      -43.693966
 C         -51.535847     -138.204239      -45.069614
 C         -50.476665     -136.747513      -43.214539
 C         -51.176136     -138.062820      -43.586205
 H         -52.471539     -137.135941      -46.472164
 H         -53.403015     -137.112854      -44.973610
 H         -50.879234     -134.573227      -43.571636
 H         -52.244629     -135.620621      -43.241257
 H         -50.510418     -138.172791      -45.577595
 H         -52.027039     -139.151184      -45.300236
 H         -50.176849     -136.690765      -42.138283
 H         -49.451714     -136.775528      -43.793751
 H         -50.639618     -138.937622      -43.198570
 H         -52.291130     -138.204514      -42.964310
