20
 generated by VMD
 C         -47.921616     -134.935760      -46.342167
 N         -47.796371     -134.671692      -47.499458
 H         -50.911423     -134.699738      -45.372406
 H         -47.807953     -134.978668      -45.245571
 C         -50.976025     -135.459686      -44.673645
 C         -51.483131     -136.772491      -45.364918
 C         -51.193710     -135.277176      -43.253258
 C         -51.225937     -137.953247      -44.574741
 C         -50.912544     -136.607178      -42.481773
 C         -51.666149     -137.814560      -43.039146
 H         -51.047470     -136.777573      -46.434052
 H         -52.505947     -136.605408      -45.450794
 H         -50.527370     -134.469864      -42.990211
 H         -52.161312     -134.870728      -43.113632
 H         -50.153923     -138.145523      -44.601948
 H         -51.710991     -138.922562      -44.856148
 H         -51.213333     -136.452194      -41.367512
 H         -49.812256     -136.887543      -42.442131
 H         -51.407246     -138.668076      -42.538620
 H         -52.694851     -137.584808      -42.926327
