20
 generated by VMD
 C         -54.490574     -148.206375      -45.302567
 N         -54.508415     -148.373856      -44.185486
 H         -54.492287     -147.952179      -48.566761
 H         -54.606533     -148.169098      -46.380981
 C         -54.356831     -147.014481      -49.158134
 C         -53.263596     -146.762360      -50.040718
 C         -55.020607     -145.881485      -48.538898
 C         -53.334370     -145.506500      -50.840302
 C         -55.113342     -144.610031      -49.289886
 C         -53.820606     -144.332977      -49.944386
 H         -53.138515     -147.528778      -50.746353
 H         -52.374870     -146.791534      -49.344368
 H         -56.074688     -146.196365      -48.449921
 H         -54.599335     -145.729630      -47.491386
 H         -54.018120     -145.574982      -51.709751
 H         -52.368813     -145.235809      -51.294834
 H         -55.478672     -143.765808      -48.609653
 H         -55.902630     -144.701218      -50.145073
 H         -54.035332     -143.362762      -50.577446
 H         -52.902367     -143.912720      -49.420624
