20
 generated by VMD
 C         -67.690636     -192.744751      -66.684387
 N         -68.789421     -192.770386      -67.051857
 H         -69.838165     -190.147461      -65.176529
 H         -66.637131     -192.690170      -66.549965
 C         -70.962173     -190.159271      -65.149666
 C         -71.578293     -190.877548      -66.274750
 C         -71.602776     -190.017944      -63.866806
 C         -72.487793     -192.027405      -65.745796
 C         -73.082443     -190.149643      -64.040062
 C         -73.483894     -191.491547      -64.720673
 H         -70.858025     -191.306839      -67.031693
 H         -72.138527     -190.140305      -66.701347
 H         -71.184998     -190.818298      -63.171421
 H         -71.527473     -189.023148      -63.548874
 H         -71.995659     -192.799408      -65.071487
 H         -72.896019     -192.690796      -66.517433
 H         -73.508507     -189.391220      -64.621567
 H         -73.588898     -190.100388      -63.042717
 H         -73.658981     -192.301926      -64.101456
 H         -74.489922     -191.323700      -65.325897
