20
 generated by VMD
 C         -47.610836     -136.653702      -45.889347
 N         -46.956066     -136.100174      -46.710205
 H         -50.949074     -135.549454      -45.829517
 H         -48.424522     -137.145615      -45.388783
 C         -51.438656     -136.409439      -45.282623
 C         -52.057743     -137.481323      -46.128586
 C         -51.931301     -136.337387      -43.843025
 C         -52.001308     -138.873093      -45.426758
 C         -51.838200     -137.685822      -43.177895
 C         -52.563248     -138.794373      -43.993267
 H         -51.400799     -137.510712      -47.072807
 H         -53.108212     -137.196869      -46.340977
 H         -51.368034     -135.605438      -43.227936
 H         -52.973663     -136.124313      -43.863064
 H         -51.032001     -139.322281      -45.598156
 H         -52.659126     -139.615311      -46.059650
 H         -52.207588     -137.663895      -42.086559
 H         -50.746407     -137.899719      -43.048714
 H         -52.470242     -139.791138      -43.584801
 H         -53.695824     -138.610107      -44.168911
