20
 generated by VMD
 C         -72.474197     -198.827530      -65.588493
 N         -73.439407     -199.456680      -65.634712
 H         -70.950012     -195.949432      -67.570305
 H         -71.595932     -198.257401      -65.242859
 C         -72.021729     -196.037903      -67.768860
 C         -72.873207     -194.926437      -67.121330
 C         -72.498528     -196.557327      -69.092567
 C         -74.304726     -194.880814      -67.755234
 C         -73.961311     -197.197449      -68.915161
 C         -74.775017     -196.349564      -68.001099
 H         -72.498802     -193.973602      -66.915756
 H         -72.879929     -195.328781      -66.057892
 H         -72.551468     -195.789963      -69.893936
 H         -71.787430     -197.341400      -69.400459
 H         -74.207054     -194.423325      -68.775887
 H         -74.981880     -194.223465      -67.216103
 H         -73.992943     -198.251343      -68.761307
 H         -74.530785     -197.070465      -69.863503
 H         -75.745979     -196.256149      -68.346825
 H         -74.946686     -196.755081      -66.871040
