20
 generated by VMD
 C         -13.953650      -28.084940       -2.981468
 N         -14.050031      -27.167093       -3.605961
 H         -10.305311      -28.145340       -2.892561
 H          -9.889633      -27.061371       -4.246575
 C          -9.483767      -27.820091       -3.585043
 C          -8.897787      -29.023756       -4.211113
 C          -8.440721      -27.209536       -2.591411
 C          -7.639452      -28.567101       -5.022396
 C          -7.180252      -26.780796       -3.344534
 C          -6.568241      -27.947548       -4.104418
 H          -9.668321      -29.453192       -4.905488
 H          -8.586020      -29.822407       -3.627010
 H          -8.906936      -26.311497       -2.162528
 H          -8.247654      -27.979750       -1.799781
 H          -7.975443      -27.917234       -5.836670
 H          -7.237875      -29.451765       -5.543341
 H          -6.406460      -26.550982       -2.586397
 H          -7.313094      -25.907103       -3.927603
 H          -5.758694      -27.625174       -4.748451
 H          -6.089300      -28.663502       -3.400430
