20
 generated by VMD
 C         -23.495518      -55.013931      -14.954793
 N         -22.778465      -54.729214      -15.827477
 H         -20.444010      -54.970623      -15.298729
 H         -24.450653      -55.356293      -14.524100
 C         -19.453941      -55.225262      -14.941080
 C         -19.051872      -54.767750      -13.498955
 C         -18.926199      -56.569904      -15.420260
 C         -18.930510      -55.978275      -12.494005
 C         -19.381132      -57.551079      -14.345759
 C         -18.599216      -57.360928      -13.139068
 H         -19.841276      -54.087311      -13.190061
 H         -18.102762      -54.249165      -13.449721
 H         -19.384209      -56.814045      -16.417248
 H         -17.844898      -56.663048      -15.505539
 H         -19.953588      -56.081032      -12.037606
 H         -18.331305      -55.785641      -11.632029
 H         -19.229977      -58.605133      -14.729652
 H         -20.453545      -57.496109      -14.157980
 H         -18.898586      -58.069508      -12.371622
 H         -17.559759      -57.424088      -13.310575
