20
 generated by VMD
 C          -1.149395      -10.870248        0.868484
 N          -1.377715       -9.797271        1.203964
 H          -3.505470      -12.582025        0.729217
 H          -4.516459      -12.206525        2.036732
 C          -4.233821      -13.026967        1.436239
 C          -3.352258      -13.997829        2.219673
 C          -5.409699      -13.762279        0.735760
 C          -4.155353      -14.647507        3.279982
 C          -6.213351      -14.537230        1.776731
 C          -5.348227      -15.404497        2.686082
 H          -2.583843      -13.463627        2.698897
 H          -2.949654      -14.724720        1.532915
 H          -5.940734      -12.943541        0.173048
 H          -4.901662      -14.410950       -0.019611
 H          -4.639015      -13.917972        3.901314
 H          -3.655398      -15.294870        3.965523
 H          -6.945282      -15.164843        1.300357
 H          -6.802976      -13.808898        2.356745
 H          -5.953557      -15.968485        3.455061
 H          -4.892966      -16.238495        2.057808
