20
 generated by VMD
 C         -30.111893      -89.565620      -25.795008
 N         -29.241579      -90.277313      -25.951590
 H         -32.322033      -91.084427      -26.410204
 H         -30.967897      -89.022339      -25.750309
 C         -32.955318      -90.739151      -27.216833
 C         -34.288761      -91.338356      -27.286373
 C         -32.538029      -89.569122      -28.036160
 C         -35.245739      -90.100281      -26.955782
 C         -33.523888      -88.416504      -27.811975
 C         -34.997643      -88.877090      -27.834290
 H         -34.297947      -92.160156      -26.530518
 H         -34.305393      -91.794975      -28.283886
 H         -31.524210      -89.260628      -27.875135
 H         -32.574871      -89.631058      -29.113699
 H         -34.902538      -89.948326      -25.918331
 H         -36.280579      -90.494545      -26.981241
 H         -33.299488      -87.581985      -28.512131
 H         -33.406689      -88.060753      -26.744020
 H         -35.770004      -88.046616      -27.647614
 H         -35.120495      -89.201111      -28.856005
