20
 generated by VMD
 C         -33.599247      -96.454300      -25.324398
 N         -32.727425      -96.989738      -24.732094
 H         -34.819405      -93.376793      -27.387268
 H         -34.430756      -95.816963      -25.675661
 C         -34.793278      -93.407799      -28.495485
 C         -36.040001      -93.766212      -29.188879
 C         -33.501091      -93.259964      -29.220928
 C         -36.302906      -93.014267      -30.462610
 C         -33.719326      -92.492989      -30.553694
 C         -34.979473      -92.942688      -31.326551
 H         -36.972816      -93.845070      -28.565315
 H         -35.797836      -94.827133      -29.425409
 H         -32.780884      -92.737602      -28.540447
 H         -33.003201      -94.242226      -29.376278
 H         -36.571453      -92.107468      -29.999983
 H         -37.246727      -93.369888      -30.988888
 H         -32.803371      -92.748268      -31.117725
 H         -33.890095      -91.375610      -30.419521
 H         -35.068382      -92.370583      -32.242661
 H         -34.933933      -93.957901      -31.682642
