20
 generated by VMD
 C         -45.940655     -123.933517      -35.651943
 N         -46.507530     -124.896576      -35.473362
 H         -44.447063     -121.620827      -38.007385
 H         -45.393501     -122.984726      -35.665272
 C         -44.685509     -121.580627      -39.022652
 C         -43.345692     -121.430939      -39.739128
 C         -45.754097     -120.771881      -39.549362
 C         -43.441181     -121.462486      -41.257565
 C         -45.885979     -120.698265      -41.041222
 C         -44.516483     -120.422531      -41.695904
 H         -42.721928     -122.220207      -39.337616
 H         -42.969028     -120.322670      -39.506699
 H         -46.629742     -120.847336      -38.926697
 H         -45.502403     -119.691780      -39.329884
 H         -43.815231     -122.516991      -41.515282
 H         -42.421955     -121.147583      -41.692799
 H         -46.682270     -120.023895      -41.583393
 H         -46.181034     -121.797043      -41.283905
 H         -44.548225     -120.315231      -42.822495
 H         -44.206120     -119.397926      -41.362392
