20
 generated by VMD
 C         -30.313168      -94.141380      -25.642944
 N         -29.788689      -93.587067      -24.800739
 H         -33.834038      -92.799637      -26.904205
 H         -30.885963      -94.717003      -26.397215
 C         -34.304943      -92.215866      -27.733181
 C         -35.841640      -92.291725      -27.933710
 C         -33.422623      -91.667267      -28.784668
 C         -36.419567      -91.296455      -28.971109
 C         -34.141068      -90.516434      -29.545050
 C         -35.441174      -91.175079      -30.094511
 H         -36.468815      -92.306992      -26.997717
 H         -36.155876      -93.265656      -28.357307
 H         -32.468464      -91.271507      -28.386887
 H         -33.255898      -92.413795      -29.631067
 H         -36.544994      -90.298515      -28.445328
 H         -37.356995      -91.661789      -29.266293
 H         -33.358128      -90.285309      -30.304781
 H         -34.333424      -89.637871      -28.915771
 H         -36.033298      -90.496201      -30.715694
 H         -35.363010      -92.121613      -30.678635
