20
 generated by VMD
 C         -39.673374      -99.268417      -28.428673
 N         -38.950439     -100.008125      -27.931759
 H         -37.425568      -98.232269      -30.720461
 H         -40.484882      -98.743515      -28.752193
 C         -36.354115      -98.237122      -30.756985
 C         -35.736599      -98.584839      -32.039364
 C         -35.581329      -97.811691      -29.521767
 C         -34.548733      -97.721519      -32.407425
 C         -34.305534      -96.970406      -29.952419
 C         -33.636597      -97.532661      -31.195522
 H         -36.555698      -98.557213      -32.739094
 H         -35.392735      -99.687073      -31.994661
 H         -36.142582      -97.267357      -28.821558
 H         -35.235836      -98.737236      -29.000706
 H         -34.961067      -96.737343      -32.745754
 H         -34.046165      -98.148315      -33.205929
 H         -33.514889      -97.046448      -29.258018
 H         -34.642536      -95.933556      -30.062374
 H         -32.755913      -96.936920      -31.600458
 H         -33.326519      -98.521530      -30.835194
