20
 generated by VMD
 C         -73.268829     -199.993118      -65.700142
 N         -73.839081     -200.743713      -65.031433
 H         -71.601295     -197.026306      -66.981674
 H         -72.770996     -199.214539      -66.228134
 C         -72.237076     -196.469467      -67.688377
 C         -73.389221     -195.572433      -67.189697
 C         -72.387283     -197.109879      -69.091995
 C         -74.269226     -195.060104      -68.213448
 C         -73.823669     -197.402084      -69.405891
 C         -74.802155     -196.196884      -69.133743
 H         -72.985703     -194.631332      -66.568626
 H         -73.863297     -196.280106      -66.555237
 H         -71.943581     -196.398102      -69.801598
 H         -71.804337     -198.020416      -69.015907
 H         -73.617462     -194.480942      -68.887543
 H         -74.980888     -194.302322      -67.862671
 H         -74.119720     -198.255661      -68.741295
 H         -73.980141     -197.806000      -70.414711
 H         -75.002235     -195.796326      -69.995682
 H         -75.706490     -196.655457      -68.621880
