20
 generated by VMD
 C         -39.759705     -100.992424      -31.388613
 N         -40.529232     -100.123634      -31.234741
 H         -37.499393     -103.459236      -31.603687
 H         -39.111286     -101.900864      -31.486767
 C         -37.010460     -102.469475      -31.391127
 C         -36.304775     -101.819382      -32.723312
 C         -36.471165     -102.036476      -30.126541
 C         -35.796906     -100.329659      -32.577702
 C         -36.247955     -100.489288      -30.056763
 C         -35.140533     -100.098579      -31.225037
 H         -36.936802     -101.903503      -33.627678
 H         -35.418354     -102.326645      -33.057831
 H         -37.127224     -102.222221      -29.342693
 H         -35.476887     -102.551033      -30.019361
 H         -36.637554      -99.657463      -32.736897
 H         -35.099140     -100.126869      -33.445015
 H         -36.043556     -100.039963      -29.027021
 H         -37.115250      -99.981598      -30.330780
 H         -34.829689      -99.043777      -31.097424
 H         -34.152401     -100.667793      -31.217243
