20
 generated by VMD
 C         -48.356888     -133.569534      -47.349392
 N         -48.130428     -133.265930      -48.464687
 H         -49.263176     -134.079819      -44.085938
 H         -48.446789     -133.855469      -46.300549
 C         -49.941196     -134.884659      -43.812454
 C         -50.041599     -136.320694      -44.484840
 C         -50.875023     -134.549042      -42.683662
 C         -50.463837     -137.364883      -43.520935
 C         -51.223930     -135.679581      -41.755783
 C         -51.576565     -136.985626      -42.628639
 H         -49.085968     -136.538345      -45.012135
 H         -50.773663     -136.198730      -45.225407
 H         -50.298317     -133.784103      -42.135998
 H         -51.681023     -134.070724      -43.091499
 H         -49.688580     -137.787567      -42.914036
 H         -50.658573     -138.189377      -44.232750
 H         -52.192127     -135.613892      -41.199127
 H         -50.479622     -135.972122      -40.939434
 H         -51.703831     -137.917908      -42.008656
 H         -52.454887     -136.759720      -43.303635
