20
 generated by VMD
 C         -66.517090     -189.679291      -66.595360
 N         -66.257889     -189.303986      -67.687614
 H         -70.205841     -190.333466      -65.383972
 H         -66.842636     -189.876373      -65.548409
 C         -70.825333     -189.986053      -64.607613
 C         -71.931007     -190.811203      -64.107246
 C         -70.480530     -188.721191      -63.937675
 C         -73.120308     -189.933548      -63.928745
 C         -71.701729     -187.783112      -63.751694
 C         -72.890114     -188.540222      -63.162857
 H         -71.785393     -191.466385      -63.202465
 H         -72.167709     -191.537033      -64.896294
 H         -69.905861     -188.946274      -62.999866
 H         -69.837807     -188.157806      -64.664764
 H         -73.862946     -190.491867      -63.423809
 H         -73.457321     -189.653732      -64.973175
 H         -72.014229     -187.388992      -64.733055
 H         -71.485947     -187.016724      -63.057449
 H         -72.578163     -188.785309      -62.050842
 H         -73.828384     -187.973846      -63.014973
