20
 generated by VMD
 C         -19.631411      -62.143524      -17.651892
 N         -19.996864      -62.048363      -16.587595
 H         -22.104250      -64.410011      -16.795691
 H         -19.517878      -62.472710      -18.759905
 C         -23.100519      -64.747543      -17.111080
 C         -23.411421      -64.138519      -18.456566
 C         -24.196199      -65.304810      -16.102140
 C         -24.446650      -65.088860      -19.049053
 C         -25.309479      -66.035736      -16.833670
 C         -25.710211      -65.244240      -18.032856
 H         -22.502935      -64.139107      -19.184793
 H         -23.793894      -63.044514      -18.244959
 H         -23.728725      -66.033569      -15.509472
 H         -24.563047      -64.470993      -15.496172
 H         -23.965647      -66.029495      -19.363396
 H         -24.709948      -64.607460      -20.046875
 H         -26.112400      -66.202377      -16.137266
 H         -24.882071      -66.996323      -17.173138
 H         -26.550714      -65.732613      -18.524506
 H         -26.079369      -64.199303      -17.869442
