20
 generated by VMD
 C         -11.494018      -33.723858       -8.443354
 N         -10.819334      -33.481304       -9.283638
 H         -11.595154      -36.979378       -8.039817
 H         -11.960407      -36.026459       -6.595531
 C         -12.282021      -36.921799       -7.203817
 C         -11.961310      -38.326874       -6.561351
 C         -13.757806      -36.930290       -7.642086
 C         -12.949635      -38.575802       -5.342467
 C         -14.728851      -37.213005       -6.503591
 C         -14.400660      -38.498768       -5.770039
 H         -10.968534      -38.362503       -6.142644
 H         -12.135536      -39.125969       -7.313130
 H         -13.968007      -35.910236       -7.956819
 H         -13.933838      -37.631283       -8.467308
 H         -12.812197      -37.840904       -4.581514
 H         -12.688212      -39.594231       -5.025557
 H         -15.790103      -37.243000       -6.939434
 H         -14.738991      -36.321487       -5.830225
 H         -15.023396      -38.611813       -4.881854
 H         -14.719228      -39.325748       -6.483470
