20
 generated by VMD
 C         -59.814934     -157.038849      -56.730339
 N         -60.947067     -156.657272      -56.694729
 H         -59.674679     -157.270981      -53.251854
 H         -58.860989     -157.468796      -56.943424
 C         -59.056736     -157.827927      -52.628071
 C         -57.872059     -157.090988      -52.154625
 C         -59.104927     -159.392059      -52.483120
 C         -57.299023     -157.672379      -50.824959
 C         -58.527893     -159.855515      -51.170151
 C         -57.145206     -159.263870      -50.807369
 H         -58.101276     -156.066910      -51.740391
 H         -57.165047     -157.005783      -52.935780
 H         -60.057682     -159.791016      -52.562450
 H         -58.625099     -159.697815      -53.415443
 H         -57.892258     -157.337509      -50.056236
 H         -56.286560     -157.248489      -50.610767
 H         -58.557873     -160.960495      -50.880043
 H         -59.177357     -159.370285      -50.356052
 H         -57.041882     -159.507050      -49.824947
 H         -56.268681     -159.666290      -51.444382
