20
 generated by VMD
 C         -59.746071     -157.347076      -56.861012
 N         -60.810562     -157.019135      -57.032478
 H         -59.585861     -157.249466      -53.309422
 H         -58.682629     -157.564819      -56.728050
 C         -59.179340     -157.836884      -52.494350
 C         -57.897243     -157.310120      -51.910389
 C         -59.460926     -159.322571      -52.506775
 C         -57.358974     -158.126404      -50.765171
 C         -58.691151     -160.112503      -51.478977
 C         -57.329319     -159.521057      -51.128887
 H         -58.039368     -156.197708      -51.532398
 H         -57.170559     -157.218185      -52.813099
 H         -60.551277     -159.582657      -52.403988
 H         -59.126545     -159.841583      -53.463573
 H         -58.032551     -157.991669      -49.804001
 H         -56.402065     -157.674423      -50.422585
 H         -58.684719     -161.228638      -51.583801
 H         -59.214619     -160.009262      -50.464523
 H         -56.997585     -159.949371      -50.172657
 H         -56.485130     -159.628983      -51.890675
