20
 generated by VMD
 C         -79.780182     -205.390076      -71.764366
 N         -79.739265     -206.536514      -71.680489
 H         -77.513298     -203.812546      -71.259727
 H         -79.736008     -204.302505      -72.055283
 C         -76.528595     -204.154449      -70.981766
 C         -75.266693     -203.426102      -71.178589
 C         -76.327560     -205.511749      -70.442253
 C         -74.313316     -203.475922      -69.893127
 C         -75.326614     -205.680832      -69.262871
 C         -74.019501     -204.949219      -69.490242
 H         -75.413528     -202.375351      -71.273834
 H         -74.697029     -203.772034      -72.076256
 H         -77.279320     -205.732742      -69.967155
 H         -76.069206     -206.307831      -71.100792
 H         -74.838615     -203.053604      -69.053230
 H         -73.405304     -202.975357      -69.905273
 H         -75.017784     -206.765839      -69.045113
 H         -75.887474     -205.385162      -68.309242
 H         -73.529800     -204.854126      -68.528580
 H         -73.329369     -205.498657      -70.226830
