20
 generated by VMD
 C         -68.510582     -194.112625      -66.557800
 N         -67.708046     -193.899826      -65.726501
 H         -70.170135     -190.822189      -66.222824
 H         -69.182419     -194.327042      -67.353714
 C         -71.170944     -190.987854      -65.902168
 C         -72.262970     -190.276016      -66.598282
 C         -71.471008     -191.645325      -64.559807
 C         -73.663956     -191.080460      -66.605667
 C         -72.921692     -191.595276      -64.204979
 C         -73.889084     -191.987061      -65.287376
 H         -71.899010     -190.092560      -67.622635
 H         -72.472649     -189.251923      -66.062767
 H         -71.157288     -192.768097      -64.641586
 H         -70.813416     -191.081665      -63.845863
 H         -73.508362     -191.759109      -67.540955
 H         -74.557022     -190.400848      -66.849419
 H         -73.126312     -190.573212      -63.796093
 H         -72.960777     -192.287323      -63.333141
 H         -73.720947     -192.982437      -65.554863
 H         -74.988876     -191.826035      -64.876457
