20
 generated by VMD
 C         -57.620174     -165.626709      -56.557953
 N         -57.845459     -166.732849      -56.183487
 H         -60.526661     -165.069275      -54.326271
 H         -57.318001     -164.658768      -57.005096
 C         -61.497864     -165.189606      -54.771591
 C         -61.818924     -166.648102      -55.289459
 C         -62.326153     -164.115982      -55.419518
 C         -63.344975     -166.957886      -55.596817
 C         -63.841698     -164.420425      -55.813301
 C         -63.937588     -165.809891      -56.381470
 H         -61.568043     -167.430222      -54.639805
 H         -61.244186     -166.899521      -56.159626
 H         -62.289806     -163.238373      -54.686863
 H         -61.842915     -163.712509      -56.353737
 H         -63.936474     -167.017441      -54.621037
 H         -63.462410     -167.914490      -56.119957
 H         -64.137108     -163.726501      -56.434723
 H         -64.342735     -164.495209      -54.888214
 H         -64.930527     -165.985580      -56.735477
 H         -63.458481     -165.676300      -57.329994
