20
 generated by VMD
 C          -2.324215      -16.907755        2.830268
 N          -2.420823      -16.368509        1.854866
 H          -4.450006      -15.781752        0.129065
 H          -4.432755      -17.151701       -1.030294
 C          -5.036016      -16.645248       -0.275684
 C          -6.284701      -15.981009       -0.941386
 C          -5.421756      -17.649490        0.834243
 C          -7.341647      -17.064436       -1.350538
 C          -6.411026      -18.612936        0.341871
 C          -7.644685      -17.987598       -0.235732
 H          -5.895058      -15.426291       -1.775030
 H          -6.785248      -15.202279       -0.295206
 H          -4.436197      -18.090006        1.096391
 H          -5.644051      -17.090132        1.729228
 H          -6.832644      -17.598473       -2.105212
 H          -8.229560      -16.701490       -1.884571
 H          -6.701357      -19.359739        1.040479
 H          -5.954149      -19.174070       -0.497773
 H          -8.375212      -18.799904       -0.439265
 H          -8.066365      -17.390648        0.582791
