20
 generated by VMD
 C         -12.566228      -30.196335       -7.824689
 N         -13.598624      -29.807209       -7.674346
 H         -11.427189      -30.315256       -5.061141
 H         -10.270042      -30.590631       -3.601594
 C         -10.847930      -31.037571       -4.480246
 C          -9.670767      -31.618498       -5.435376
 C         -11.776958      -32.184097       -4.075516
 C          -8.872501      -32.703480       -4.752963
 C         -10.894306      -33.316158       -3.441618
 C          -9.809886      -33.820919       -4.469655
 H          -8.946765      -30.845333       -5.663405
 H         -10.112074      -31.885277       -6.385999
 H         -12.420444      -31.849220       -3.252560
 H         -12.389961      -32.494308       -4.960052
 H          -8.376742      -32.401394       -3.773386
 H          -8.070013      -33.095688       -5.448999
 H         -11.506736      -34.187492       -3.104778
 H         -10.435730      -32.919769       -2.544509
 H          -9.200635      -34.642941       -3.955704
 H         -10.346028      -34.186340       -5.399485
