20
 generated by VMD
 C         -76.062981     -202.703293      -66.429993
 N         -76.872169     -203.080185      -65.672241
 H         -75.655548     -200.326019      -68.857956
 H         -75.262520     -202.361404      -67.154640
 C         -74.831612     -199.621506      -69.016289
 C         -74.821243     -198.248917      -68.449516
 C         -73.766151     -200.126236      -69.964455
 C         -73.472404     -197.751801      -68.556732
 C         -73.185074     -198.966385      -70.844955
 C         -72.746017     -197.839630      -69.902199
 H         -75.196022     -198.230637      -67.437607
 H         -75.470604     -197.533051      -69.052544
 H         -72.942787     -200.579819      -69.419014
 H         -74.245422     -200.849304      -70.675308
 H         -72.820877     -198.321518      -67.899727
 H         -73.419037     -196.705856      -68.263519
 H         -74.027580     -198.833237      -71.580116
 H         -72.326218     -199.249298      -71.566277
 H         -71.663651     -197.931946      -69.722488
 H         -72.922256     -196.857681      -70.550926
