20
 generated by VMD
 C         -12.182156      -31.916565       -8.653479
 N         -12.860294      -31.656828       -9.482199
 H         -10.327388      -34.434715       -6.954009
 H         -11.348457      -33.743683       -5.749226
 C         -11.103524      -34.713673       -6.184072
 C         -10.473665      -35.621662       -5.144433
 C         -12.407280      -35.251652       -6.827943
 C         -11.422547      -36.108475       -4.112435
 C         -13.352242      -35.604763       -5.662983
 C         -12.711577      -36.669617       -4.734354
 H          -9.672810      -35.100235       -4.676487
 H         -10.058280      -36.434372       -5.759224
 H         -12.953364      -34.533390       -7.459502
 H         -12.165045      -36.122429       -7.480567
 H         -11.647914      -35.410908       -3.277935
 H         -10.901534      -36.976120       -3.692934
 H         -14.289804      -36.131401       -6.038788
 H         -13.682963      -34.726868       -5.112068
 H         -13.360855      -36.891483       -3.945379
 H         -12.545603      -37.625378       -5.266103
