20
 generated by VMD
 C         -49.364529     -127.456284      -39.446045
 N         -50.433193     -127.366943      -39.887302
 H         -46.972595     -127.221207      -42.371063
 H         -48.331116     -127.474503      -39.202412
 C         -46.322598     -126.446922      -41.971149
 C         -45.517731     -127.151947      -40.828327
 C         -46.550468     -124.990784      -42.098286
 C         -44.417480     -126.166206      -40.424526
 C         -45.371952     -124.245110      -41.531536
 C         -44.916641     -124.718300      -40.174927
 H         -45.030872     -128.100937      -41.039307
 H         -46.149338     -127.417046      -39.912159
 H         -46.673016     -124.793945      -43.182610
 H         -47.394424     -124.762810      -41.420525
 H         -43.768284     -126.090118      -41.275391
 H         -43.922489     -126.631119      -39.584839
 H         -45.524563     -123.265419      -41.699020
 H         -44.564377     -124.405228      -42.214241
 H         -44.134560     -123.982269      -39.966213
 H         -45.724876     -124.611969      -39.362812
