20
 generated by VMD
 C         -41.540173     -119.362587      -34.515480
 N         -41.148243     -119.893936      -35.494438
 H         -43.187626     -118.405106      -36.658470
 H         -42.114822     -118.895706      -33.637230
 C         -43.783920     -118.133194      -37.579014
 C         -42.920406     -118.063339      -38.757835
 C         -45.134838     -117.501068      -37.558449
 C         -43.788296     -118.625694      -39.990437
 C         -45.844337     -117.889320      -38.930710
 C         -45.123428     -117.840309      -40.231979
 H         -42.085670     -118.700470      -38.545788
 H         -42.573269     -117.096176      -39.006329
 H         -45.632576     -117.896667      -36.686665
 H         -45.171535     -116.301247      -37.482037
 H         -44.097420     -119.718849      -39.828678
 H         -43.110867     -118.577919      -40.827831
 H         -46.701237     -117.139175      -38.783260
 H         -46.314236     -118.903275      -38.741413
 H         -45.772224     -118.267838      -40.948322
 H         -44.914536     -116.733231      -40.507744
