20
 generated by VMD
 C         -29.935127      -79.892479      -26.296848
 N         -29.429010      -79.988205      -27.342010
 H         -28.207964      -82.717819      -25.094833
 H         -30.155811      -79.912392      -25.310669
 C         -29.166708      -82.892975      -24.509043
 C         -29.210981      -82.413528      -23.050175
 C         -30.013353      -84.184036      -24.818865
 C         -30.533667      -82.500008      -22.375874
 C         -31.311924      -84.127075      -24.043440
 C         -31.226486      -83.870934      -22.554085
 H         -28.887503      -81.322403      -22.962881
 H         -28.587368      -83.080040      -22.489038
 H         -30.325895      -84.258476      -25.896006
 H         -29.299988      -85.016029      -24.630768
 H         -31.165701      -81.729332      -22.765650
 H         -30.501814      -82.225067      -21.281639
 H         -31.912371      -85.049438      -24.281868
 H         -31.925695      -83.272728      -24.538651
 H         -32.295193      -83.807732      -22.119112
 H         -30.733820      -84.750664      -22.249939
