20
 generated by VMD
 C         -57.795486     -165.523010      -56.424500
 N         -57.245155     -164.820297      -57.120621
 H         -60.184841     -164.652451      -54.251995
 H         -58.277390     -166.196320      -55.776863
 C         -61.224682     -164.920578      -54.666065
 C         -61.966526     -166.136795      -54.261902
 C         -61.802433     -163.891022      -55.638092
 C         -63.417324     -166.119766      -54.645657
 C         -63.302822     -164.042999      -55.741901
 C         -63.725842     -165.488220      -55.972092
 H         -61.798233     -166.459015      -53.147423
 H         -61.473129     -167.017395      -54.689003
 H         -61.644936     -162.914352      -55.394093
 H         -61.433548     -163.963074      -56.666809
 H         -63.745560     -165.646194      -53.751133
 H         -63.720657     -167.152328      -54.625996
 H         -63.730145     -163.532242      -56.613777
 H         -63.925732     -163.525131      -54.936646
 H         -64.799774     -165.485199      -56.060383
 H         -63.174923     -165.963684      -56.714924
