20
 generated by VMD
 C         -79.050240     -207.345291      -75.479218
 N         -80.116295     -206.996292      -75.397827
 H         -77.587158     -208.758087      -73.382042
 H         -78.086632     -207.830276      -75.628006
 C         -77.381645     -209.018524      -72.347115
 C         -76.289337     -208.194656      -71.684677
 C         -78.095604     -210.061737      -71.506912
 C         -76.292419     -208.111511      -70.172142
 C         -78.269501     -209.632950      -70.021721
 C         -76.917992     -209.338608      -69.428589
 H         -76.384827     -207.117386      -71.935936
 H         -75.300385     -208.494980      -72.158348
 H         -79.098373     -210.245255      -71.896774
 H         -77.568153     -210.954330      -71.792847
 H         -76.707138     -207.192215      -69.770096
 H         -75.257065     -208.049942      -69.792419
 H         -78.599045     -210.524429      -69.564384
 H         -79.046486     -208.866684      -69.723267
 H         -77.186745     -209.311249      -68.375839
 H         -76.226601     -210.172028      -69.582542
