20
 generated by VMD
 C         -12.028197      -41.618050       -7.450553
 N         -11.598163      -40.774410       -6.887391
 H         -14.034361      -40.673309       -8.333418
 H         -15.316841      -40.190582       -9.448971
 C         -14.925938      -41.064007       -8.965300
 C         -16.006596      -41.793285       -8.204921
 C         -14.310113      -42.028271      -10.006308
 C         -17.034565      -42.170269       -9.235930
 C         -15.367724      -42.584679      -10.933775
 C         -16.507847      -43.222286      -10.200213
 H         -16.396225      -41.098404       -7.457980
 H         -15.638281      -42.595329       -7.625890
 H         -13.536557      -41.654011      -10.674609
 H         -13.905313      -42.831215       -9.503656
 H         -17.353544      -41.251888       -9.726374
 H         -17.859631      -42.615410       -8.723948
 H         -14.876872      -43.294804      -11.561955
 H         -15.766802      -41.737888      -11.601331
 H         -17.294773      -43.608727      -10.899893
 H         -16.151262      -44.055489       -9.587989
