20
 generated by VMD
 C          -9.117887      -23.840412        2.427622
 N          -8.669329      -24.845436        2.601102
 H          -8.162588      -23.413376       -1.145684
 H          -9.078295      -22.702936       -2.436396
 C          -8.133394      -22.999897       -2.128505
 C          -7.614854      -24.123022       -3.018976
 C          -7.087821      -21.853323       -2.102860
 C          -7.438414      -23.585247       -4.383610
 C          -6.933349      -21.256065       -3.558115
 C          -6.476672      -22.383818       -4.485580
 H          -8.364594      -24.977674       -3.026535
 H          -6.796853      -24.610605       -2.513586
 H          -7.567385      -21.110703       -1.445107
 H          -6.105981      -22.157755       -1.721758
 H          -8.388595      -23.356636       -4.860614
 H          -7.115120      -24.392204       -5.062418
 H          -6.209620      -20.450443       -3.519138
 H          -7.885769      -20.823908       -3.916075
 H          -6.486866      -21.985958       -5.525289
 H          -5.431174      -22.763824       -4.182401
