20
 generated by VMD
 C         -49.712627     -133.193466      -46.839516
 N         -48.877762     -132.354019      -47.117756
 H         -48.165363     -134.155548      -44.325802
 H         -50.469093     -133.970657      -46.773933
 C         -48.993999     -134.708282      -43.969406
 C         -49.308624     -136.157120      -44.131741
 C         -49.898117     -133.807632      -43.185795
 C         -49.994343     -136.772415      -42.873344
 C         -50.587261     -134.586090      -42.047668
 C         -51.230511     -135.835632      -42.517879
 H         -48.418022     -136.674057      -44.329952
 H         -50.002655     -136.340607      -45.020329
 H         -49.361732     -133.020798      -42.766781
 H         -50.578846     -133.383148      -43.920319
 H         -49.446404     -136.890396      -41.943798
 H         -50.544540     -137.657852      -43.183338
 H         -51.394791     -133.951202      -41.512917
 H         -49.805557     -134.800003      -41.238461
 H         -51.726460     -136.196777      -41.724167
 H         -52.039131     -135.605255      -43.238579
