20
 generated by VMD
 C         -20.232878      -52.236824       -9.830510
 N         -21.121317      -51.552437      -10.254409
 H         -18.266396      -49.489002      -10.677140
 H         -19.794123      -52.861450       -9.251616
 C         -17.669592      -49.441147      -11.613987
 C         -16.889994      -50.670891      -11.867062
 C         -17.331533      -48.121967      -12.236222
 C         -16.909473      -50.918098      -13.344184
 C         -16.882401      -48.407627      -13.649264
 C         -16.192749      -49.779884      -14.008894
 H         -17.200048      -51.463619      -11.230746
 H         -15.872079      -50.446892      -11.475595
 H         -18.168280      -47.428177      -12.245367
 H         -16.511259      -47.679039      -11.705410
 H         -18.003700      -50.912323      -13.637617
 H         -16.553904      -51.894943      -13.672136
 H         -16.208117      -47.494473      -13.912423
 H         -17.758959      -48.375916      -14.260143
 H         -16.219206      -49.953823      -15.118397
 H         -15.102527      -49.811192      -13.694667
