20
 generated by VMD
 C         -12.062886      -42.789848       -7.134439
 N         -12.465739      -42.123810       -6.323822
 H         -14.922941      -43.702103       -8.212574
 H         -14.572423      -42.327923       -9.065833
 C         -15.199187      -43.226673       -9.109087
 C         -16.707281      -42.993259       -9.018775
 C         -14.808340      -44.073940      -10.391706
 C         -17.326523      -42.463249      -10.303898
 C         -15.628555      -43.695404      -11.639825
 C         -17.133848      -43.468159      -11.471417
 H         -16.922550      -42.307709       -8.228728
 H         -17.112894      -43.970421       -8.825124
 H         -13.731390      -44.020222      -10.563508
 H         -15.133811      -45.072002      -10.164031
 H         -16.870523      -41.487389      -10.550982
 H         -18.407263      -42.354343      -10.186572
 H         -15.401401      -44.387268      -12.394870
 H         -15.268611      -42.718075      -12.112411
 H         -17.662296      -43.087719      -12.365280
 H         -17.633724      -44.476395      -11.306507
