20
 generated by VMD
 C         -68.553665     -184.955734      -65.989143
 N         -69.568474     -185.540466      -66.013420
 H         -69.884262     -182.763412      -63.367470
 H         -67.643684     -184.417511      -66.023239
 C         -69.305901     -183.605240      -62.889202
 C         -70.019653     -184.922104      -62.648987
 C         -67.853409     -183.575302      -62.529194
 C         -69.125702     -185.914444      -61.982628
 C         -67.465439     -184.184128      -61.078159
 C         -68.391129     -185.373886      -60.794659
 H         -70.306297     -185.273743      -63.626873
 H         -71.034813     -184.795532      -62.119629
 H         -67.378891     -184.226990      -63.272976
 H         -67.328705     -182.627213      -62.690723
 H         -68.341911     -186.300232      -62.633472
 H         -69.847549     -186.687454      -61.771690
 H         -67.534767     -183.292892      -60.429138
 H         -66.530357     -184.690598      -61.036015
 H         -67.739647     -186.177505      -60.425919
 H         -69.004799     -185.029160      -60.114216
