20
 generated by VMD
 C         -22.264191      -67.446777      -16.154514
 N         -21.133459      -67.131165      -16.171247
 H         -23.855124      -65.545288      -17.939219
 H         -23.200222      -67.660446      -16.451132
 C         -24.416342      -66.141670      -18.612249
 C         -23.942978      -66.611755      -19.943192
 C         -25.927479      -66.410942      -18.180542
 C         -24.366499      -68.066483      -20.280563
 C         -26.444633      -67.646622      -18.782711
 C         -25.925808      -68.055130      -20.206450
 H         -22.899944      -66.502075      -20.102335
 H         -24.249350      -66.020821      -20.830658
 H         -26.012188      -66.563988      -17.070805
 H         -26.399841      -65.568291      -18.544874
 H         -23.930794      -68.720673      -19.457102
 H         -24.052740      -68.444901      -21.244452
 H         -27.551542      -67.631538      -18.600569
 H         -26.058397      -68.413811      -18.147448
 H         -26.409536      -69.025291      -20.480974
 H         -26.253700      -67.309807      -20.902754
