20
 generated by VMD
 C         -39.535404     -107.657181      -37.744633
 N         -39.056423     -106.631004      -37.867802
 H         -39.399826     -108.412300      -34.965340
 H         -40.061504     -108.616318      -37.849129
 C         -39.952534     -109.126823      -34.283928
 C         -39.159645     -110.212135      -33.814423
 C         -41.431782     -109.106613      -34.150940
 C         -39.754910     -110.981476      -32.614685
 C         -41.941677     -109.855072      -32.938534
 C         -41.274624     -111.244911      -32.715137
 H         -38.198418     -109.735146      -33.652599
 H         -38.848259     -110.899643      -34.624603
 H         -41.678741     -107.995270      -34.084476
 H         -41.944366     -109.510475      -35.080475
 H         -39.482410     -110.389465      -31.685190
 H         -39.281235     -111.932419      -32.622723
 H         -42.997734     -109.812828      -33.143547
 H         -41.719254     -109.240555      -32.023308
 H         -41.648697     -111.763863      -31.874437
 H         -41.482750     -111.964020      -33.649677
