20
 generated by VMD
 C         -43.199009     -121.204620      -35.621655
 N         -43.230762     -120.507675      -34.690125
 H         -44.503918     -122.027702      -38.868805
 H         -43.451820     -121.790749      -36.434307
 C         -44.523468     -121.033913      -39.181980
 C         -43.269161     -120.363503      -39.783306
 C         -45.610676     -120.102974      -38.565220
 C         -43.619732     -119.039902      -40.429443
 C         -45.825943     -118.899635      -39.458393
 C         -44.561661     -118.040176      -39.759212
 H         -42.927711     -120.995628      -40.518284
 H         -42.613148     -120.172676      -38.916519
 H         -46.509563     -120.676674      -38.555599
 H         -45.438709     -119.892143      -37.476395
 H         -44.068817     -119.336342      -41.441074
 H         -42.813717     -118.387512      -40.691383
 H         -46.377663     -118.140266      -38.867336
 H         -46.495323     -119.076996      -40.487270
 H         -45.020237     -117.299156      -40.419666
 H         -44.112789     -117.600578      -38.794209
