20
 generated by VMD
 C         -13.493490      -44.214737       -6.704867
 N         -13.804331      -43.959431       -5.653089
 H         -14.966757      -44.821411       -8.999733
 H         -14.444292      -43.819244      -10.441354
 C         -15.227267      -44.363804       -9.993009
 C         -16.414925      -43.492481       -9.794037
 C         -15.607759      -45.600338      -10.925276
 C         -16.895369      -42.934345      -11.118752
 C         -16.089729      -45.034096      -12.263974
 C         -17.234678      -44.034439      -12.118826
 H         -16.189852      -42.614731       -9.088552
 H         -17.200296      -44.166332       -9.394441
 H         -14.685125      -46.171658      -11.066050
 H         -16.423908      -46.117805      -10.419202
 H         -16.139324      -42.260708      -11.544193
 H         -17.816401      -42.362404      -10.977592
 H         -16.421677      -45.977757      -12.859998
 H         -15.345563      -44.497581      -12.815339
 H         -17.475473      -43.607948      -13.103251
 H         -18.128668      -44.526123      -11.856583
