20
 generated by VMD
 C         -78.412994     -209.472870      -76.949722
 N         -78.390808     -209.082855      -78.075584
 H         -78.912506     -211.090485      -73.709000
 H         -78.493843     -209.766647      -75.968475
 C         -79.031265     -211.763596      -72.808426
 C         -77.782898     -212.167404      -72.150093
 C         -80.210205     -212.656769      -72.856781
 C         -78.177765     -212.289078      -70.680519
 C         -80.502342     -213.161667      -71.505768
 C         -79.266853     -213.297531      -70.618980
 H         -76.915146     -211.437653      -72.230240
 H         -77.342384     -213.070480      -72.599922
 H         -80.997459     -211.991867      -73.111626
 H         -80.058380     -213.575790      -73.483551
 H         -78.609680     -211.391464      -70.221809
 H         -77.275177     -212.398315      -70.106163
 H         -81.210403     -214.123001      -71.535118
 H         -81.215782     -212.389374      -71.093559
 H         -79.581749     -213.357239      -69.551239
 H         -78.972229     -214.287567      -70.765579
