20
 generated by VMD
 C         -25.881334      -71.838669      -17.181278
 N         -26.689747      -72.479568      -16.607523
 H         -24.256968      -69.060356      -18.865145
 H         -25.287291      -71.191750      -17.681984
 C         -24.750994      -69.541183      -19.694092
 C         -24.079323      -70.702538      -20.301958
 C         -25.769506      -68.838936      -20.469534
 C         -25.124495      -71.521591      -21.150543
 C         -26.729565      -69.643211      -21.222368
 C         -26.063311      -70.650352      -22.018461
 H         -23.738382      -71.375832      -19.484562
 H         -23.295557      -70.477249      -21.050583
 H         -26.320597      -68.201027      -19.796972
 H         -25.264011      -68.236816      -21.152111
 H         -25.562616      -72.173561      -20.378963
 H         -24.551403      -72.234932      -21.812540
 H         -27.139023      -69.084587      -22.032742
 H         -27.583277      -69.978554      -20.753859
 H         -26.705967      -71.432259      -22.529514
 H         -25.505795      -70.043816      -22.782000
