20
 generated by VMD
 C         -58.217087     -165.588104      -56.282360
 N         -57.288834     -165.403214      -56.909935
 H         -60.859112     -164.523926      -53.770817
 H         -59.068684     -165.840439      -55.623528
 C         -61.443707     -164.933594      -54.551594
 C         -61.724724     -166.333328      -54.791824
 C         -61.873844     -163.959457      -55.682388
 C         -63.236092     -166.426285      -54.889626
 C         -63.397377     -164.126099      -55.882915
 C         -63.809620     -165.544678      -55.929413
 H         -61.436939     -166.913284      -53.946796
 H         -61.219803     -166.672760      -55.697792
 H         -61.524517     -162.990479      -55.446995
 H         -61.348869     -164.321823      -56.560776
 H         -63.662079     -166.169586      -53.912220
 H         -63.664333     -167.357254      -55.108074
 H         -63.641205     -163.509033      -56.743420
 H         -63.832279     -163.480240      -55.031700
 H         -64.867424     -165.497879      -55.887745
 H         -63.508461     -165.980820      -56.857689
