20
 generated by VMD
 C         -59.356171     -168.903427      -55.856430
 N         -59.410633     -168.659897      -54.716202
 H         -63.055576     -169.959396      -56.034916
 H         -59.411831     -169.127991      -56.907391
 C         -62.999981     -168.925781      -56.497017
 C         -62.777824     -168.710968      -57.984051
 C         -63.192108     -167.790756      -55.535595
 C         -63.685028     -167.615677      -58.479740
 C         -64.031876     -166.725708      -56.188835
 C         -63.704811     -166.414566      -57.571720
 H         -62.843971     -169.604584      -58.458252
 H         -61.626385     -168.437775      -58.055199
 H         -63.611816     -168.053284      -54.550583
 H         -62.280449     -167.295059      -55.291813
 H         -64.703590     -167.989563      -58.610973
 H         -63.403252     -167.490295      -59.516224
 H         -64.048119     -165.819016      -55.434551
 H         -65.151169     -167.086319      -56.188858
 H         -64.296051     -165.649689      -57.955837
 H         -62.707569     -165.968216      -57.604778
