20
 generated by VMD
 C         -13.492347      -45.210217       -5.866815
 N         -14.358621      -44.751610       -6.423983
 H         -14.980440      -44.361126       -9.025232
 H         -14.461250      -44.016228      -10.648044
 C         -15.332744      -44.318066      -10.086826
 C         -16.489447      -43.336590      -10.295280
 C         -15.651685      -45.640156      -10.680884
 C         -16.900469      -43.160824      -11.742167
 C         -16.217018      -45.531784      -12.099051
 C         -17.404385      -44.536232      -12.268668
 H         -16.323605      -42.340443       -9.852508
 H         -17.294674      -43.691059       -9.707720
 H         -14.673792      -46.100529      -10.693178
 H         -16.257748      -46.262753      -10.032924
 H         -16.028833      -42.838917      -12.352788
 H         -17.688818      -42.409866      -11.895084
 H         -16.456566      -46.522015      -12.571653
 H         -15.450298      -45.204140      -12.730540
 H         -17.552984      -44.503353      -13.387272
 H         -18.339340      -44.779671      -11.730812
