20
 generated by VMD
 C         -28.486446      -82.497475      -26.336788
 N         -27.780067      -82.701805      -27.223213
 H         -31.537315      -83.861465      -26.447533
 H         -29.211039      -82.270065      -25.677608
 C         -31.312351      -84.649338      -25.799473
 C         -30.822309      -84.467796      -24.330736
 C         -31.942060      -86.032791      -26.095249
 C         -31.786306      -84.934380      -23.359491
 C         -32.999268      -86.323433      -24.977600
 C         -32.360588      -86.308151      -23.639906
 H         -30.747845      -83.388840      -24.227066
 H         -29.715111      -84.934616      -24.281786
 H         -32.537846      -86.147781      -27.019026
 H         -31.065351      -86.682602      -26.177376
 H         -32.634781      -84.259895      -23.360136
 H         -31.457596      -84.928177      -22.260344
 H         -33.603329      -87.255135      -25.158300
 H         -33.685192      -85.524857      -25.139236
 H         -33.122517      -86.497238      -22.913094
 H         -31.614370      -87.140266      -23.468714
