20
 generated by VMD
 C         -38.556492     -109.551575      -36.302109
 N         -37.586292     -108.948608      -36.224621
 H         -42.397099     -110.164825      -36.788025
 H         -39.556496     -110.065529      -36.375050
 C         -42.053722     -110.781113      -35.931801
 C         -41.765377     -112.267891      -36.076160
 C         -42.686260     -110.214577      -34.567928
 C         -40.886986     -112.556412      -34.831890
 C         -41.761856     -110.768822      -33.439243
 C         -41.495445     -112.304100      -33.451515
 H         -41.334030     -112.424309      -37.068165
 H         -42.669834     -112.817001      -36.099155
 H         -42.727028     -109.176163      -34.644627
 H         -43.652531     -110.652878      -34.600269
 H         -39.851231     -112.099091      -34.905449
 H         -40.557770     -113.617805      -34.822044
 H         -42.075672     -110.480026      -32.488197
 H         -40.787086     -110.374504      -33.541229
 H         -40.648636     -112.526749      -32.706512
 H         -42.398003     -112.909477      -33.297001
