20
 generated by VMD
 C         -78.744324     -204.359100      -70.688438
 N         -79.883636     -204.372894      -70.306213
 H         -76.595985     -203.299072      -68.385155
 H         -77.643661     -204.377319      -70.743446
 C         -75.620605     -202.913391      -68.825638
 C         -75.666626     -201.618652      -69.617416
 C         -74.372307     -203.734772      -68.891998
 C         -74.731682     -201.780136      -70.856018
 C         -73.097710     -202.932022      -69.134895
 C         -73.348862     -201.885284      -70.316536
 H         -75.204491     -200.928131      -68.817307
 H         -76.661461     -201.304779      -69.935120
 H         -74.369888     -204.339615      -67.918007
 H         -74.501907     -204.603394      -69.679016
 H         -74.862617     -200.912979      -71.560783
 H         -74.976608     -202.689911      -71.393074
 H         -72.319168     -203.582993      -69.414757
 H         -72.628899     -202.361252      -68.345840
 H         -73.037300     -200.799362      -69.889191
 H         -72.632286     -201.912308      -71.145264
