20
 generated by VMD
 C         -41.261703     -102.929543      -35.714123
 N         -41.249912     -104.072807      -35.488708
 H         -39.512691     -104.371323      -33.554707
 H         -40.901367     -101.963348      -35.885921
 C         -38.730595     -105.054764      -33.030941
 C         -37.249477     -104.755829      -32.900425
 C         -39.152290     -106.458252      -32.727955
 C         -36.628254     -105.261848      -31.516285
 C         -38.558285     -106.751091      -31.310129
 C         -37.133595     -106.615227      -31.025915
 H         -37.083385     -103.717590      -32.929375
 H         -36.636387     -105.217812      -33.638836
 H         -40.297821     -106.638641      -32.679531
 H         -38.770622     -107.113930      -33.442772
 H         -36.622078     -104.443649      -30.797089
 H         -35.524963     -105.423935      -31.550211
 H         -38.796055     -107.687599      -30.870796
 H         -39.081242     -106.021523      -30.722685
 H         -36.850582     -106.664207      -30.027559
 H         -36.597183     -107.485809      -31.544117
