20
 generated by VMD
 C          -2.098182      -16.586067        2.394901
 N          -1.548382      -17.508337        2.689006
 H          -5.079349      -16.569735        0.770524
 H          -4.650820      -17.676617       -0.545292
 C          -5.521974      -17.175404       -0.005165
 C          -6.307696      -16.399508       -1.083880
 C          -6.394287      -18.222399        0.785853
 C          -7.210505      -17.364286       -1.918495
 C          -7.127829      -19.172562       -0.163641
 C          -8.007459      -18.432632       -1.106414
 H          -5.594063      -15.944352       -1.831813
 H          -6.909170      -15.631010       -0.652044
 H          -5.802708      -18.763868        1.460025
 H          -7.100220      -17.636204        1.359876
 H          -6.571356      -17.866652       -2.675603
 H          -7.879247      -16.779398       -2.514554
 H          -7.744131      -19.792765        0.525379
 H          -6.399956      -19.831383       -0.617638
 H          -8.519432      -19.144659       -1.770257
 H          -8.872804      -17.922640       -0.584947
