20
 generated by VMD
 C          -6.849752      -23.306087        2.973574
 N          -6.878535      -22.619711        2.106876
 H          -7.960705      -22.779654       -0.651337
 H          -8.997757      -22.304630       -2.019286
 C          -7.965856      -22.232401       -1.556460
 C          -7.119792      -23.027018       -2.593991
 C          -7.588655      -20.786230       -1.382654
 C          -7.006714      -22.306761       -3.997160
 C          -7.521009      -20.097803       -2.734659
 C          -6.590211      -20.845112       -3.739021
 H          -7.517201      -24.091885       -2.610134
 H          -6.097315      -23.026161       -2.278281
 H          -8.156900      -20.218576       -0.655351
 H          -6.574793      -20.786369       -0.954979
 H          -7.991386      -22.267532       -4.533519
 H          -6.413445      -22.904291       -4.706131
 H          -7.231006      -19.040833       -2.606295
 H          -8.539159      -20.018478       -3.155673
 H          -6.587979      -20.270473       -4.714097
 H          -5.548469      -20.759384       -3.324004
