20
 generated by VMD
 C         -28.475115      -84.517677      -26.692297
 N         -27.822332      -83.553711      -26.839245
 H         -31.326231      -84.517006      -26.254555
 H         -29.179438      -85.437721      -26.507570
 C         -31.433491      -85.448112      -25.796854
 C         -31.516045      -85.473824      -24.249874
 C         -31.912302      -86.649429      -26.626955
 C         -32.852173      -86.024338      -23.795818
 C         -33.337242      -86.971573      -26.142715
 C         -33.205471      -87.364288      -24.620096
 H         -31.429243      -84.493317      -23.818159
 H         -30.671864      -86.136185      -23.895699
 H         -31.779749      -86.467957      -27.757021
 H         -31.285885      -87.492943      -26.359638
 H         -33.614151      -85.314819      -24.020357
 H         -32.854488      -86.431107      -22.761299
 H         -33.694942      -87.836494      -26.690208
 H         -33.871525      -86.150719      -26.425949
 H         -34.131271      -87.579330      -24.242777
 H         -32.533195      -88.189728      -24.398020
