20
 generated by VMD
 C         -61.241043     -156.185303      -54.998573
 N         -60.302017     -155.712769      -55.590931
 H         -59.647976     -156.410599      -51.810467
 H         -62.141933     -156.699509      -54.605858
 C         -58.599434     -156.471237      -51.534382
 C         -57.862206     -155.129074      -51.238834
 C         -57.867355     -157.704498      -51.931847
 C         -56.547024     -155.482742      -50.420334
 C         -56.523960     -157.907898      -51.294674
 C         -55.688354     -156.606506      -51.208347
 H         -58.451237     -154.541214      -50.610943
 H         -57.670967     -154.597412      -52.163219
 H         -58.382565     -158.671494      -51.750671
 H         -57.722519     -157.616272      -53.048355
 H         -56.797714     -155.995560      -49.409382
 H         -56.059624     -154.476913      -50.309406
 H         -56.052914     -158.711746      -51.727398
 H         -56.577904     -158.001419      -50.224163
 H         -54.755013     -156.795212      -50.719284
 H         -55.437466     -156.307404      -52.259045
