20
 generated by VMD
 C         -36.859562      -98.222046      -27.236578
 N         -37.819252      -98.313118      -26.608091
 H         -36.516037      -96.141090      -28.976210
 H         -35.925095      -98.221634      -27.824352
 C         -35.599777      -96.506554      -29.426514
 C         -35.420593      -97.170677      -30.734074
 C         -34.457718      -95.600967      -29.072199
 C         -35.041069      -96.128571      -31.847557
 C         -34.259281      -94.513412      -30.217646
 C         -33.838161      -95.301773      -31.507793
 H         -36.344601      -97.677322      -30.964005
 H         -34.650803      -97.907532      -30.566544
 H         -34.724915      -94.972511      -28.171133
 H         -33.481724      -96.127602      -28.825050
 H         -35.941875      -95.530708      -31.997383
 H         -34.876324      -96.673813      -32.838638
 H         -33.374542      -93.981316      -29.980042
 H         -35.168133      -93.892944      -30.441395
 H         -33.429016      -94.627251      -32.478069
 H         -33.050327      -95.936409      -31.218973
