20
 generated by VMD
 C         -61.042580     -156.052826      -54.491650
 N         -60.665504     -156.114731      -55.636185
 H         -59.467041     -155.912064      -51.103615
 H         -61.525459     -155.962585      -53.489902
 C         -58.394516     -155.833969      -51.318985
 C         -57.595989     -154.740005      -50.716087
 C         -57.677860     -156.778900      -52.199421
 C         -56.324203     -155.357529      -50.089832
 C         -56.409618     -157.334045      -51.674183
 C         -55.532211     -156.289505      -51.100723
 H         -58.178082     -154.234604      -49.913948
 H         -57.367195     -154.111221      -51.596848
 H         -58.209209     -157.728210      -52.522648
 H         -57.455090     -156.210983      -53.175911
 H         -56.521988     -155.991821      -49.102444
 H         -55.865490     -154.469604      -49.531166
 H         -55.892189     -157.837479      -52.558933
 H         -56.494488     -158.202881      -50.935677
 H         -54.610794     -156.762314      -50.531513
 H         -55.168880     -155.710297      -51.899632
