20
 generated by VMD
 C         -40.336685     -100.226234      -30.170691
 N         -41.459461     -100.547325      -30.160873
 H         -37.270771     -101.068024      -30.222092
 H         -39.355087      -99.855751      -30.040655
 C         -36.438198     -100.658806      -30.854019
 C         -36.240437     -100.319458      -32.317230
 C         -35.322960     -100.568245      -29.933479
 C         -35.479046      -99.011337      -32.416355
 C         -34.548218      -99.318787      -30.052389
 C         -34.217056      -99.066048      -31.545872
 H         -37.168423     -100.027199      -32.842808
 H         -35.729599     -101.090164      -32.917862
 H         -35.733562     -100.625641      -28.891678
 H         -34.635075     -101.364571      -30.113993
 H         -36.129162      -98.213379      -32.192738
 H         -35.028847      -98.931892      -33.415291
 H         -33.584007      -99.401672      -29.455812
 H         -35.174541      -98.554840      -29.699480
 H         -33.725780      -98.111176      -31.482870
 H         -33.451962      -99.817688      -31.911566
