20
 generated by VMD
 C         -49.981682     -143.439407      -44.512505
 N         -49.217419     -143.506836      -45.438152
 H         -52.100662     -141.099945      -45.483677
 H         -50.616909     -143.433167      -43.586060
 C         -52.730572     -141.430283      -46.339520
 C         -52.169231     -141.602676      -47.740410
 C         -54.179737     -141.118286      -46.133610
 C         -53.083179     -142.252838      -48.751896
 C         -55.016285     -141.844559      -47.167500
 C         -54.560875     -141.680099      -48.596272
 H         -51.281673     -142.250748      -47.696144
 H         -51.841579     -140.546387      -48.173695
 H         -54.446148     -141.459442      -45.103390
 H         -54.261745     -139.970123      -46.232044
 H         -52.872608     -143.302032      -48.635853
 H         -52.899647     -142.028870      -49.804005
 H         -56.029640     -141.581253      -46.887161
 H         -54.993515     -142.947021      -47.027969
 H         -55.169514     -142.269073      -49.267735
 H         -54.654568     -140.718140      -49.058273
