20
 generated by VMD
 C         -23.258152      -53.347786      -13.282659
 N         -23.362703      -52.675922      -14.291601
 H         -20.691706      -55.086449      -14.376863
 H         -23.262007      -54.163666      -12.686512
 C         -19.568457      -54.887993      -13.928934
 C         -19.078188      -53.400986      -13.873012
 C         -18.541384      -55.896183      -14.230377
 C         -17.809237      -53.382706      -13.052462
 C         -17.372175      -55.778542      -13.253771
 C         -16.717243      -54.457382      -13.430554
 H         -19.884432      -52.777138      -13.378163
 H         -18.938824      -52.979778      -14.892390
 H         -18.934013      -56.952843      -14.255100
 H         -18.177071      -55.696487      -15.269673
 H         -18.209240      -53.473740      -12.048865
 H         -17.334253      -52.387459      -13.109432
 H         -16.641069      -56.601730      -13.421375
 H         -17.752052      -55.876831      -12.241234
 H         -15.867621      -54.389233      -12.786085
 H         -16.491186      -54.330044      -14.502362
