20
 generated by VMD
 C         -77.165993     -203.676636      -66.908188
 N         -77.961716     -204.331223      -66.411308
 H         -75.706848     -200.638138      -68.918755
 H         -76.325111     -203.029984      -67.271477
 C         -74.944611     -199.995239      -69.177956
 C         -74.656670     -198.697220      -68.569275
 C         -73.742111     -200.818390      -69.616364
 C         -73.532364     -197.965744      -69.196060
 C         -72.832573     -199.969345      -70.543488
 C         -73.123451     -198.566040      -70.653152
 H         -74.528015     -198.818985      -67.470703
 H         -75.546906     -198.127502      -68.678429
 H         -73.141342     -201.184647      -68.707489
 H         -74.069176     -201.613297      -70.315239
 H         -72.644875     -197.794113      -68.545540
 H         -73.945274     -196.905884      -69.298553
 H         -72.970467     -200.368286      -71.551384
 H         -71.830399     -200.274368      -70.269287
 H         -72.195442     -197.917511      -70.928940
 H         -73.942879     -198.401306      -71.338219
