20
 generated by VMD
 C         -46.394054     -124.334206      -35.973507
 N         -46.910049     -125.314415      -35.527489
 H         -44.431229     -121.503670      -37.883690
 H         -45.773571     -123.419914      -36.099392
 C         -44.478985     -121.416061      -38.998878
 C         -43.275768     -121.573723      -39.839733
 C         -45.731167     -120.803864      -39.566002
 C         -43.478394     -121.722862      -41.297890
 C         -45.935352     -121.007011      -41.081562
 C         -44.615875     -120.913979      -41.892445
 H         -42.507053     -122.321892      -39.590641
 H         -42.752457     -120.696022      -39.620537
 H         -46.570408     -121.256271      -39.092976
 H         -45.678246     -119.712822      -39.200993
 H         -43.626831     -122.751900      -41.514889
 H         -42.508171     -121.735359      -41.879227
 H         -46.609306     -120.201439      -41.316452
 H         -46.389973     -121.933815      -41.264938
 H         -44.905933     -121.231651      -42.914906
 H         -44.368729     -119.891075      -41.893185
