20
 generated by VMD
 C          -1.218341      -12.987948        1.083344
 N          -0.560682      -12.904290        0.180461
 H          -4.160023      -13.183232        1.670362
 H          -5.548571      -13.031812        0.644935
 C          -5.005423      -13.764123        1.290987
 C          -5.803798      -14.114037        2.585409
 C          -4.409651      -14.960691        0.654583
 C          -6.734146      -15.365858        2.405453
 C          -5.397058      -16.085356        0.420597
 C          -6.037527      -16.534245        1.691384
 H          -6.527016      -13.317199        2.890414
 H          -5.054396      -14.425566        3.347875
 H          -4.034720      -14.760141       -0.396570
 H          -3.500720      -15.412876        1.228982
 H          -7.506034      -15.081002        1.723018
 H          -7.186504      -15.750788        3.319180
 H          -4.953524      -16.958021       -0.074498
 H          -6.150792      -15.686027       -0.221764
 H          -6.786855      -17.318514        1.530423
 H          -5.301026      -16.898048        2.413291
