20
 generated by VMD
 C         -30.424133      -92.790688      -26.149063
 N         -31.229998      -92.606384      -25.353916
 H         -33.062729      -90.205460      -26.209364
 H         -29.561251      -93.007576      -26.814552
 C         -33.384342      -90.674065      -27.171555
 C         -34.163967      -91.989853      -27.275066
 C         -33.160355      -90.064789      -28.474852
 C         -35.440826      -91.662086      -28.071005
 C         -34.450478      -89.776169      -29.223949
 C         -35.181183      -91.134911      -29.519339
 H         -34.489246      -92.169327      -26.270361
 H         -33.505459      -92.696297      -27.639082
 H         -32.637112      -89.106979      -28.403137
 H         -32.535496      -90.621941      -29.105751
 H         -36.178665      -91.068962      -27.540911
 H         -35.928268      -92.667206      -28.260645
 H         -34.198631      -89.318176      -30.196453
 H         -35.189110      -89.129944      -28.649738
 H         -36.248100      -91.148499      -29.905210
 H         -34.560062      -91.812714      -30.180410
