20
 generated by VMD
 C         -40.855255     -104.024551      -36.879318
 N         -41.184948     -104.933449      -36.250587
 H         -39.101879     -105.387802      -34.213345
 H         -40.523148     -103.064430      -37.317318
 C         -38.920269     -106.031929      -33.430534
 C         -37.641232     -105.949455      -32.586796
 C         -39.620777     -107.339874      -33.314232
 C         -37.700436     -106.791740      -31.336008
 C         -39.532238     -108.276680      -32.037800
 C         -38.077984     -108.193398      -31.558083
 H         -37.322563     -104.918541      -32.429214
 H         -36.737499     -106.326889      -33.028828
 H         -40.681435     -107.123512      -33.543621
 H         -39.378197     -108.130554      -34.078842
 H         -38.304081     -106.268051      -30.658451
 H         -36.734135     -106.666702      -30.934818
 H         -39.923756     -109.248619      -32.030643
 H         -40.134880     -107.746063      -31.270275
 H         -38.021568     -108.788971      -30.569866
 H         -37.380383     -108.667633      -32.146351
