20
 generated by VMD
 C         -20.429424      -56.360565      -16.735518
 N         -21.405750      -55.988640      -17.266872
 H         -22.540457      -58.593285      -16.694561
 H         -19.369162      -56.941368      -16.647871
 C         -22.176609      -59.381554      -16.043018
 C         -22.390694      -59.204590      -14.539023
 C         -21.670868      -60.678520      -16.591465
 C         -21.128418      -59.703724      -13.829579
 C         -20.806881      -61.545380      -15.624799
 C         -20.774462      -61.182850      -14.100236
 H         -23.169596      -59.856380      -14.228195
 H         -22.591768      -58.116581      -14.392812
 H         -22.613630      -61.238953      -16.787617
 H         -21.152977      -60.514187      -17.572849
 H         -21.200298      -59.541691      -12.769385
 H         -20.271877      -59.011192      -14.131915
 H         -19.783854      -61.274040      -15.994406
 H         -21.106327      -62.593609      -15.774497
 H         -21.509733      -61.860199      -13.707755
 H         -19.838926      -61.529980      -13.564726
