20
 generated by VMD
 C         -68.837791     -185.817352      -66.344658
 N         -68.249222     -186.225922      -67.263924
 H         -69.631668     -183.215332      -63.727783
 H         -69.491699     -185.424347      -65.512772
 C         -69.364403     -184.013840      -62.983688
 C         -70.590843     -184.810562      -62.522701
 C         -68.009171     -184.191299      -62.381874
 C         -70.228516     -185.760880      -61.392262
 C         -67.784027     -185.421127      -61.408955
 C         -68.837296     -186.486099      -61.472454
 H         -71.020370     -185.305344      -63.418758
 H         -71.333275     -184.052994      -62.207436
 H         -67.264145     -184.218048      -63.162685
 H         -67.665924     -183.315903      -61.746845
 H         -71.013924     -186.491791      -61.454777
 H         -70.194283     -185.271820      -60.426308
 H         -67.681900     -185.003876      -60.337021
 H         -66.851433     -185.906357      -61.658878
 H         -68.726837     -186.887695      -62.496521
 H         -68.835876     -187.318115      -60.680023
