20
 generated by VMD
 C          -9.677015      -24.877705        0.592405
 N         -10.592751      -25.347454        0.159245
 H          -6.248493      -24.053104       -0.857684
 H          -7.947041      -23.540205       -1.032214
 C          -6.969884      -23.769245       -1.619249
 C          -7.250188      -24.993311       -2.485566
 C          -6.557424      -22.497066       -2.457343
 C          -8.140343      -24.748898       -3.655692
 C          -7.502623      -22.388781       -3.629706
 C          -7.576539      -23.598047       -4.538376
 H          -7.435464      -25.892059       -1.865368
 H          -6.284894      -25.330139       -2.924544
 H          -6.526450      -21.522701       -1.923199
 H          -5.587385      -22.611202       -2.877562
 H          -9.155049      -24.425789       -3.313521
 H          -8.382314      -25.643101       -4.229908
 H          -7.256243      -21.464712       -4.197192
 H          -8.469305      -22.204462       -3.122929
 H          -8.239197      -23.375906       -5.404064
 H          -6.583593      -23.866093       -4.801186
