20
 generated by VMD
 C         -70.043083     -183.331009      -65.473282
 N         -69.500839     -182.433517      -65.982941
 H         -67.855301     -185.036865      -62.995907
 H         -70.527229     -184.118744      -64.989700
 C         -67.854927     -184.262604      -62.226871
 C         -68.003967     -184.559479      -60.826775
 C         -68.050957     -182.822388      -62.646198
 C         -67.348106     -183.597809      -59.838131
 C         -67.132118     -181.857132      -61.800716
 C         -67.276474     -182.106491      -60.257370
 H         -67.795181     -185.549866      -60.486732
 H         -69.110565     -184.672684      -60.643337
 H         -67.745827     -182.777359      -63.764610
 H         -69.119484     -182.616882      -62.444405
 H         -66.362373     -183.991684      -59.528759
 H         -68.049858     -183.611176      -58.936108
 H         -67.483208     -180.801743      -61.835316
 H         -66.029205     -181.955399      -62.149220
 H         -66.675819     -181.400452      -59.774693
 H         -68.248749     -181.719299      -59.996693
