20
 generated by VMD
 C         -10.469185      -35.578663       -8.140760
 N         -10.153498      -36.071190       -9.087396
 H         -13.560182      -37.017582       -6.659860
 H         -14.638442      -38.120045       -5.812617
 C         -14.066084      -38.031902       -6.726229
 C         -13.110776      -39.215691       -6.868033
 C         -15.036445      -38.000721       -7.903659
 C         -13.860616      -40.561970       -6.910712
 C         -15.754711      -39.334930       -8.105968
 C         -14.883135      -40.612469       -8.065909
 H         -12.377748      -39.165291       -6.081525
 H         -12.494760      -39.142628       -7.735730
 H         -15.789112      -37.224609       -7.926107
 H         -14.528397      -37.821930       -8.905871
 H         -14.399625      -40.754402       -5.924891
 H         -13.171189      -41.451252       -6.929079
 H         -16.391277      -39.332966       -8.990800
 H         -16.465014      -39.404629       -7.221156
 H         -15.517089      -41.505451       -7.972067
 H         -14.324218      -40.726635       -9.027163
