20
 generated by VMD
 C         -58.304367     -159.037979      -58.010124
 N         -59.320854     -158.902359      -57.347828
 H         -59.535332     -159.899338      -54.394737
 H         -57.443928     -159.209305      -58.643559
 C         -59.507057     -160.799576      -53.856155
 C         -58.649052     -160.938293      -52.684242
 C         -60.687077     -161.728409      -54.002079
 C         -59.297340     -161.127686      -51.372391
 C         -61.457958     -161.651169      -52.751640
 C         -60.472672     -162.132019      -51.594818
 H         -57.891811     -160.122726      -52.592766
 H         -57.929157     -161.763367      -52.955486
 H         -61.355312     -161.395676      -54.754490
 H         -60.196018     -162.708649      -54.285442
 H         -59.728493     -160.230911      -51.047470
 H         -58.573044     -161.629257      -50.604797
 H         -62.223820     -162.388748      -52.852566
 H         -61.828949     -160.689072      -52.494476
 H         -61.072411     -162.250748      -50.785881
 H         -60.145626     -163.116913      -51.859108
