20
 generated by VMD
 C         -40.549656     -106.707352      -37.305626
 N         -39.519890     -106.677750      -37.837547
 H         -38.496075     -108.610550      -34.972122
 H         -41.556927     -106.576324      -37.014381
 C         -39.114655     -108.816055      -34.122269
 C         -38.659847     -109.925804      -33.106827
 C         -40.671673     -108.838684      -34.367458
 C         -39.709675     -110.413193      -32.064976
 C         -41.508583     -109.303551      -33.246788
 C         -41.020985     -110.618675      -32.766010
 H         -37.851116     -109.329124      -32.623093
 H         -38.199833     -110.736656      -33.719250
 H         -40.999226     -107.794960      -34.552273
 H         -40.859135     -109.424240      -35.222210
 H         -39.687416     -109.700058      -31.238119
 H         -39.574081     -111.368225      -31.648211
 H         -42.478760     -109.357925      -33.637394
 H         -41.424988     -108.592186      -32.454319
 H         -41.742561     -111.028687      -32.095680
 H         -40.871391     -111.404579      -33.600540
