20
 generated by VMD
 C         -30.176519      -92.451012      -25.720371
 N         -29.401543      -92.346992      -24.837498
 H         -32.234196      -90.082184      -26.949734
 H         -30.900032      -92.393417      -26.596510
 C         -33.236012      -90.174911      -27.379393
 C         -34.141121      -91.359566      -27.134699
 C         -33.388470      -89.209991      -28.509012
 C         -35.484524      -91.275490      -27.739340
 C         -34.669643      -89.274269      -29.265022
 C         -35.391956      -90.686859      -29.151407
 H         -34.018860      -91.552208      -26.055681
 H         -33.573349      -92.236908      -27.500776
 H         -33.195133      -88.197159      -28.376575
 H         -32.695713      -89.560089      -29.212107
 H         -35.989166      -90.655045      -27.011547
 H         -35.996021      -92.248016      -27.728985
 H         -34.650043      -88.814537      -30.276039
 H         -35.400036      -88.646904      -28.752485
 H         -36.449322      -90.808006      -29.542032
 H         -34.749844      -91.337608      -29.832926
