20
 generated by VMD
 C         -78.446648     -204.322586      -70.450394
 N         -79.505875     -203.985657      -70.102562
 H         -76.407249     -203.256653      -68.239250
 H         -77.432594     -204.676102      -70.527924
 C         -75.593666     -202.861908      -68.875572
 C         -75.750420     -201.487183      -69.482109
 C         -74.251976     -203.521164      -68.701286
 C         -74.894478     -201.531967      -70.811325
 C         -73.124634     -202.775406      -69.345924
 C         -73.351952     -201.696198      -70.336098
 H         -75.416641     -200.671829      -68.790321
 H         -76.752136     -201.330383      -69.838097
 H         -73.954063     -203.787125      -67.698593
 H         -74.336151     -204.407608      -69.225266
 H         -75.067024     -200.603378      -71.338234
 H         -75.193756     -202.350906      -71.491982
 H         -72.477051     -203.540817      -69.908195
 H         -72.562683     -202.457764      -68.472206
 H         -73.139763     -200.683868      -69.902428
 H         -72.640015     -201.624023      -71.231499
