20
 generated by VMD
 C         -68.123482     -179.228516      -58.328625
 N         -67.202324     -178.718033      -57.847355
 H         -65.964561     -176.399857      -58.823433
 H         -69.024834     -179.550705      -58.764996
 C         -65.411095     -175.719299      -59.526207
 C         -66.059418     -174.712799      -60.393776
 C         -63.866726     -176.021515      -59.596321
 C         -65.278786     -173.445679      -60.287628
 C         -63.158657     -174.626358      -59.734238
 C         -63.877396     -173.564682      -60.599239
 H         -67.056206     -174.599136      -60.011875
 H         -66.094521     -174.899033      -61.528214
 H         -63.458733     -176.625504      -58.826427
 H         -63.683220     -176.541061      -60.505573
 H         -65.502792     -173.048721      -59.254932
 H         -65.888794     -172.731308      -60.931503
 H         -62.070438     -174.674149      -60.023582
 H         -63.113903     -174.291534      -58.679813
 H         -63.295776     -172.666290      -60.540184
 H         -63.956577     -174.044022      -61.628147
