20
 generated by VMD
 C         -11.647765      -25.904774       -0.879307
 N         -11.592285      -25.065870       -0.162908
 H          -8.006379      -26.174835       -1.230348
 H          -9.120023      -25.600216       -2.380634
 C          -8.023109      -25.695520       -2.174252
 C          -7.383733      -26.499331       -3.274616
 C          -7.428555      -24.272087       -2.075380
 C          -7.411744      -25.811440       -4.621529
 C          -7.476394      -23.612104       -3.425606
 C          -6.943338      -24.386600       -4.568255
 H          -7.969724      -27.401186       -3.372964
 H          -6.290499      -26.574724       -3.066804
 H          -8.001074      -23.694202       -1.322465
 H          -6.393437      -24.372339       -1.790845
 H          -8.470590      -25.791664       -4.894465
 H          -6.780617      -26.374842       -5.312308
 H          -6.870186      -22.722582       -3.295112
 H          -8.481809      -23.271143       -3.671870
 H          -7.130687      -23.857712       -5.517531
 H          -5.866378      -24.410793       -4.362547
