20
 generated by VMD
 C         -70.175583     -181.366745      -62.734344
 N         -71.050140     -180.724579      -63.146957
 H         -67.225304     -181.801636      -61.036251
 H         -69.382668     -181.956100      -62.228745
 C         -66.639732     -180.911118      -60.666447
 C         -65.156128     -181.154251      -60.441147
 C         -67.333015     -179.539673      -60.556969
 C         -64.340446     -179.833008      -60.717148
 C         -66.398865     -178.398926      -61.020229
 C         -65.036972     -178.490753      -60.289742
 H         -64.781677     -181.948074      -61.028683
 H         -65.004387     -181.366531      -59.444260
 H         -68.308044     -179.343689      -61.168751
 H         -67.612846     -179.356033      -59.496162
 H         -64.030678     -179.530640      -61.734539
 H         -63.360401     -179.969772      -60.098335
 H         -66.879059     -177.471024      -60.759262
 H         -66.361191     -178.372131      -62.096794
 H         -64.549431     -177.507645      -60.518898
 H         -65.250763     -178.605286      -59.239109
