20
 generated by VMD
 C         -29.154926      -80.426552      -27.016724
 N         -30.041430      -80.197380      -27.748960
 H         -28.089762      -83.013481      -24.184441
 H         -28.224407      -80.729080      -26.418093
 C         -29.147638      -83.100601      -23.985580
 C         -29.486721      -83.092361      -22.538956
 C         -30.019100      -84.004944      -24.907961
 C         -30.897020      -83.205925      -22.210539
 C         -31.452953      -84.099503      -24.498360
 C         -31.653269      -84.301743      -23.065275
 H         -29.145231      -82.085663      -22.038170
 H         -28.959743      -83.981354      -22.070684
 H         -29.983829      -83.780357      -26.030909
 H         -29.542332      -84.949074      -24.785713
 H         -31.457769      -82.324570      -22.366205
 H         -30.910480      -83.598587      -21.084475
 H         -31.827755      -84.968216      -25.190708
 H         -31.867893      -83.194435      -24.917253
 H         -32.751968      -84.200890      -22.777380
 H         -31.397871      -85.365662      -22.833235
