20
 generated by VMD
 C         -79.719139     -206.852707      -74.119545
 N         -80.507416     -207.314667      -74.864548
 H         -76.603615     -207.513046      -73.294044
 H         -79.000481     -206.541138      -73.306587
 C         -76.613998     -207.535797      -72.163750
 C         -75.406067     -207.373764      -71.402077
 C         -77.645020     -208.477402      -71.573898
 C         -75.664856     -206.989532      -69.940125
 C         -77.712883     -208.648880      -69.971680
 C         -76.390091     -208.123703      -69.247444
 H         -74.774239     -206.601120      -71.946503
 H         -74.827026     -208.326431      -71.283241
 H         -78.615982     -208.193649      -71.862564
 H         -77.498512     -209.456497      -72.061493
 H         -76.112968     -205.994904      -69.768845
 H         -74.696426     -206.927963      -69.431313
 H         -77.943405     -209.606445      -69.572227
 H         -78.533989     -207.950653      -69.651840
 H         -76.718040     -208.079742      -68.141518
 H         -75.693069     -208.971283      -69.134796
