20
 generated by VMD
 C         -10.534591      -33.352478       -9.506370
 N         -10.938487      -32.533611       -8.815814
 H         -11.968067      -36.130596       -7.896937
 H         -12.479239      -35.669804       -6.322810
 C         -12.527976      -36.486931       -7.038430
 C         -11.804328      -37.712063       -6.466517
 C         -13.977754      -36.782825       -7.325070
 C         -12.575745      -38.214252       -5.197698
 C         -14.697780      -37.133553       -6.052098
 C         -14.078971      -38.391731       -5.390353
 H         -10.779873      -37.431679       -6.106618
 H         -11.611129      -38.526237       -7.186108
 H         -14.430416      -35.870628       -7.824025
 H         -14.050502      -37.519638       -8.099576
 H         -12.438534      -37.544052       -4.298537
 H         -12.117052      -39.130169       -4.885323
 H         -15.763050      -37.426788       -6.336487
 H         -14.736021      -36.307430       -5.344828
 H         -14.582182      -38.608974       -4.412376
 H         -14.272168      -39.242886       -6.039751
