20
 generated by VMD
 C         -31.099922      -74.783936      -22.155783
 N         -31.242691      -75.874207      -21.744682
 H         -28.578720      -77.047691      -20.978504
 H         -30.745081      -74.047173      -22.853327
 C         -27.714012      -76.534973      -21.326286
 C         -26.712006      -77.436569      -21.989546
 C         -27.164473      -75.335686      -20.674021
 C         -25.792551      -76.675758      -22.950602
 C         -26.161798      -74.553703      -21.525309
 C         -25.145922      -75.454193      -22.206791
 H         -27.235533      -78.060265      -22.557493
 H         -26.069624      -78.023598      -21.344692
 H         -28.045607      -74.657730      -20.343271
 H         -26.675961      -75.655869      -19.748091
 H         -26.441164      -76.423805      -23.759331
 H         -24.999256      -77.275879      -23.384232
 H         -25.710533      -73.762184      -20.936161
 H         -26.683578      -74.004128      -22.244162
 H         -24.575966      -74.775566      -22.803516
 H         -24.620508      -75.911606      -21.401962
