20
 generated by VMD
 C         -23.272875      -55.126057      -15.047716
 N         -22.686058      -54.937977      -15.996453
 H         -20.145020      -54.581524      -15.239146
 H         -23.778334      -55.464779      -14.076227
 C         -19.444342      -55.277611      -14.811541
 C         -18.861717      -55.013279      -13.480452
 C         -19.350901      -56.521549      -15.527491
 C         -19.288017      -56.084572      -12.530637
 C         -19.272484      -57.726936      -14.515422
 C         -18.837019      -57.439617      -13.032907
 H         -19.230247      -54.015228      -13.193709
 H         -17.744688      -54.897137      -13.350816
 H         -20.188013      -56.549572      -16.259039
 H         -18.438271      -56.539234      -16.263737
 H         -20.389389      -56.033607      -12.468946
 H         -18.832247      -55.908226      -11.553728
 H         -18.604490      -58.473782      -14.982378
 H         -20.242069      -58.111229      -14.397267
 H         -19.224773      -58.164291      -12.309495
 H         -17.733486      -57.518711      -12.962966
