20
 generated by VMD
 C         -47.891266     -135.030792      -46.205284
 N         -47.728065     -134.800720      -47.378273
 H         -51.088322     -134.615295      -45.481556
 H         -48.382618     -135.432236      -45.272709
 C         -51.119411     -135.440689      -44.779568
 C         -51.699177     -136.805679      -45.413044
 C         -51.171722     -135.319809      -43.338154
 C         -51.247574     -138.019165      -44.640724
 C         -50.806347     -136.681671      -42.544624
 C         -51.614296     -137.820297      -43.087429
 H         -51.363724     -136.957733      -46.436043
 H         -52.841476     -136.828674      -45.467453
 H         -50.663170     -134.400604      -43.047409
 H         -52.308384     -135.160019      -43.063488
 H         -50.154015     -138.189758      -44.746284
 H         -51.650982     -138.953186      -44.922447
 H         -51.185642     -136.534042      -41.584023
 H         -49.763157     -136.874542      -42.608574
 H         -51.312859     -138.864120      -42.503811
 H         -52.665890     -137.550354      -43.071308
