20
 generated by VMD
 C         -67.724052     -177.999405      -57.750786
 N         -67.229332     -178.731232      -56.983700
 H         -64.597008     -176.368546      -58.982052
 H         -68.112495     -177.218094      -58.359509
 C         -64.562714     -175.431305      -59.522427
 C         -65.770729     -174.576462      -59.768452
 C         -63.326336     -175.135162      -60.210888
 C         -65.394325     -173.078522      -59.593533
 C         -63.006275     -173.589523      -60.135616
 C         -64.178078     -172.701584      -60.484707
 H         -66.459679     -174.871338      -58.966824
 H         -66.203026     -174.676224      -60.779339
 H         -62.428997     -175.544479      -59.787914
 H         -63.219109     -175.354874      -61.280903
 H         -65.170822     -172.899826      -58.564919
 H         -66.214081     -172.491165      -59.965649
 H         -62.239658     -173.324081      -60.871254
 H         -62.537094     -173.589783      -59.104912
 H         -63.691677     -171.788513      -60.147694
 H         -64.357742     -172.621918      -61.535305
