20
 generated by VMD
 C         -50.711014     -129.582581      -45.564503
 N         -51.285202     -130.545624      -45.577827
 H         -48.206013     -130.765945      -43.968708
 H         -50.153172     -128.751160      -45.879757
 C         -48.216251     -130.903595      -42.966492
 C         -48.353291     -132.237946      -42.176765
 C         -47.849571     -129.674637      -42.062309
 C         -47.130573     -132.455139      -41.236271
 C         -46.754223     -129.965210      -41.106731
 C         -46.954903     -131.226303      -40.331299
 H         -48.481976     -133.108002      -42.841228
 H         -49.330940     -132.037933      -41.693501
 H         -47.701725     -128.715469      -42.625565
 H         -48.793896     -129.561859      -41.421097
 H         -46.220734     -132.690094      -41.773247
 H         -47.305729     -133.389877      -40.713776
 H         -46.652760     -129.184753      -40.299503
 H         -45.738583     -129.924637      -41.641842
 H         -46.071236     -131.472427      -39.639599
 H         -47.959019     -131.211502      -39.829510
