20
 generated by VMD
 C         -20.300657      -61.550446      -16.635895
 N         -19.516287      -61.063030      -17.368078
 H         -21.668970      -64.857315      -17.107065
 H         -20.875849      -61.903835      -15.857935
 C         -22.670002      -64.518929      -17.145094
 C         -23.198908      -64.127403      -18.489153
 C         -23.552303      -64.721207      -15.940413
 C         -24.564613      -64.620308      -18.814051
 C         -24.860790      -65.363747      -16.410660
 C         -25.517548      -64.532631      -17.550339
 H         -22.484219      -64.498711      -19.276443
 H         -23.221893      -62.999077      -18.519356
 H         -23.066063      -65.525383      -15.265157
 H         -23.851244      -63.857964      -15.320644
 H         -24.583183      -65.711777      -19.149668
 H         -25.080763      -63.993031      -19.569094
 H         -25.570608      -65.693893      -15.623442
 H         -24.586401      -66.332527      -16.798201
 H         -26.470673      -65.101730      -17.852764
 H         -25.787689      -63.527939      -17.231880
