20
 generated by VMD
 C         -20.296906      -64.155571      -16.417969
 N         -19.859192      -63.330414      -17.098824
 H         -23.801756      -63.182114      -17.181141
 H         -20.617060      -65.025398      -16.034122
 C         -24.054152      -64.176979      -17.643190
 C         -24.500406      -64.349609      -19.017153
 C         -24.247906      -65.235229      -16.671772
 C         -24.684128      -65.760361      -19.542553
 C         -24.747910      -66.618462      -17.158323
 C         -25.571978      -66.650551      -18.479752
 H         -23.654678      -63.939571      -19.669897
 H         -25.500845      -63.926189      -19.185291
 H         -23.149853      -65.434029      -16.175703
 H         -24.764313      -64.837250      -15.768623
 H         -23.728874      -66.311386      -19.517422
 H         -25.185787      -65.818130      -20.508255
 H         -25.404943      -67.016388      -16.344584
 H         -23.940653      -67.373795      -17.261477
 H         -25.763046      -67.744278      -18.803116
 H         -26.597647      -66.227783      -18.409029
