20
 generated by VMD
 C         -67.362808     -192.145920      -67.345856
 N         -67.979668     -192.793243      -66.594925
 H         -69.904503     -189.853577      -65.369125
 H         -66.773117     -191.414886      -67.890602
 C         -70.935524     -190.091553      -65.144760
 C         -71.749092     -190.886154      -66.128624
 C         -71.566414     -189.405640      -63.924984
 C         -72.873611     -191.654099      -65.562698
 C         -73.037315     -189.829117      -63.854828
 C         -73.255608     -191.273331      -64.083176
 H         -71.188049     -191.492981      -66.784042
 H         -72.153297     -190.169815      -66.860855
 H         -71.017952     -189.840775      -63.070995
 H         -71.425308     -188.279495      -63.965019
 H         -72.691086     -192.729553      -65.605965
 H         -73.821396     -191.529495      -66.158325
 H         -73.720688     -189.244843      -64.535210
 H         -73.457802     -189.551331      -62.898758
 H         -72.588829     -191.740250      -63.417347
 H         -74.406570     -191.600250      -64.165352
