20
 generated by VMD
 C         -78.722389     -208.521118      -76.946617
 N         -79.177727     -208.398422      -75.890480
 H         -78.849258     -209.183060      -73.285439
 H         -78.165588     -208.532959      -77.897194
 C         -78.490036     -209.885025      -72.512337
 C         -77.087196     -209.650452      -71.964432
 C         -79.194641     -211.224182      -72.042351
 C         -77.035133     -209.766083      -70.441460
 C         -79.175331     -211.435257      -70.536125
 C         -77.730492     -211.124710      -69.962334
 H         -76.615288     -208.709290      -72.271111
 H         -76.388664     -210.335846      -72.482948
 H         -80.238495     -211.205124      -72.231972
 H         -78.801346     -212.034378      -72.649536
 H         -77.750763     -209.013504      -70.029770
 H         -76.103851     -209.418365      -69.986397
 H         -79.518677     -212.546616      -70.453064
 H         -79.876640     -210.772415      -70.006691
 H         -78.046997     -211.152115      -68.934723
 H         -77.040337     -211.961304      -70.142899
