20
 generated by VMD
 C          -5.012517      -21.062414        1.779634
 N          -5.344182      -20.423822        2.631095
 H          -4.982543      -18.620054       -0.771585
 H          -5.570507      -20.185192       -0.150444
 C          -5.765109      -19.394564       -0.907122
 C          -5.520753      -20.050583       -2.263489
 C          -7.253030      -18.939951       -0.594632
 C          -6.719978      -20.956039       -2.631776
 C          -8.361561      -19.831608       -1.170512
 C          -8.001304      -20.167982       -2.627897
 H          -4.586404      -20.687271       -2.309748
 H          -5.361910      -19.362001       -3.035527
 H          -7.244756      -18.878393        0.542223
 H          -7.290481      -17.901850       -0.986114
 H          -6.669210      -21.858475       -2.050186
 H          -6.596318      -21.236242       -3.650746
 H          -9.288650      -19.262871       -1.179909
 H          -8.483326      -20.762032       -0.617709
 H          -8.823071      -20.640392       -3.177947
 H          -7.816031      -19.240944       -3.179180
