20
 generated by VMD
 C         -50.293537     -130.222275      -46.150196
 N         -50.922428     -130.127853      -45.111519
 H         -48.141434     -131.902237      -44.600422
 H         -49.942398     -130.459915      -47.201061
 C         -48.120834     -132.065964      -43.504219
 C         -48.352940     -133.311356      -42.627373
 C         -48.087112     -130.718567      -42.695770
 C         -47.742519     -133.257919      -41.245728
 C         -47.634674     -130.717545      -41.247433
 C         -48.162403     -131.910889      -40.579319
 H         -47.956013     -134.283478      -43.143162
 H         -49.425270     -133.434769      -42.490044
 H         -47.486118     -129.975052      -43.319420
 H         -49.147572     -130.328705      -42.707748
 H         -46.671703     -133.205414      -41.191647
 H         -48.080959     -134.004684      -40.562393
 H         -47.906448     -129.752747      -40.808025
 H         -46.532219     -130.733841      -41.318905
 H         -47.938046     -131.793121      -39.504795
 H         -49.240612     -131.914780      -40.582153
