20
 generated by VMD
 C         -15.267884      -47.381939       -6.256201
 N         -15.402954      -46.791637       -5.312781
 H         -16.264687      -46.681046       -9.819260
 H         -15.016087      -46.431137      -11.053576
 C         -16.109783      -46.359909      -10.840487
 C         -16.439323      -44.866192      -10.907662
 C         -17.004158      -47.135357      -11.797492
 C         -16.308922      -44.321930      -12.309218
 C         -16.863832      -46.636177      -13.286315
 C         -17.108953      -45.129910      -13.307870
 H         -15.787533      -44.327965      -10.246693
 H         -17.439880      -44.660393      -10.467083
 H         -16.847589      -48.218288      -11.763374
 H         -18.027817      -47.033974      -11.473878
 H         -15.314147      -44.113625      -12.697021
 H         -16.781446      -43.313904      -12.266522
 H         -17.566248      -47.273361      -13.928254
 H         -15.834475      -46.856754      -13.616960
 H         -16.974134      -44.678486      -14.294517
 H         -18.173159      -45.055912      -12.979773
