20
 generated by VMD
 C         -40.621571     -118.967850      -35.458153
 N         -39.616402     -118.544197      -35.071304
 H         -44.085213     -117.552994      -36.070732
 H         -41.393898     -119.624008      -35.829697
 C         -44.010616     -117.016594      -36.994522
 C         -43.016659     -117.467674      -38.067741
 C         -45.195786     -116.325531      -37.571701
 C         -43.738960     -118.342941      -39.200314
 C         -45.912025     -117.187187      -38.654236
 C         -44.961369     -117.602303      -39.798309
 H         -42.287140     -118.033958      -37.463264
 H         -42.601227     -116.615250      -38.574169
 H         -45.981094     -116.197716      -36.850742
 H         -44.949169     -115.245529      -37.959740
 H         -44.044426     -119.326805      -38.717022
 H         -42.922436     -118.593735      -39.875057
 H         -46.848621     -116.834610      -39.102901
 H         -46.352352     -118.243515      -38.304337
 H         -45.395489     -118.219978      -40.627136
 H         -44.691952     -116.570984      -40.366241
