20
 generated by VMD
 C         -40.708511     -100.228218      -30.181562
 N         -40.925129     -100.368317      -29.052328
 H         -37.448727      -99.983353      -30.719154
 H         -40.476345      -99.847984      -31.123024
 C         -36.378345      -99.910728      -30.785723
 C         -35.984955      -99.822830      -32.262142
 C         -35.347851      -99.972527      -29.744699
 C         -35.112278      -98.546692      -32.533062
 C         -34.385731      -98.762321      -30.030951
 C         -33.895092      -98.726753      -31.488478
 H         -36.942211      -99.959381      -32.843315
 H         -35.343449     -100.651337      -32.508450
 H         -35.787132      -99.978409      -28.690569
 H         -34.840576     -100.914734      -29.906118
 H         -35.688732      -97.639465      -32.263012
 H         -34.832615      -98.560997      -33.647896
 H         -33.561275      -98.745972      -29.306080
 H         -34.878506      -97.777420      -29.890152
 H         -33.049732      -98.046600      -31.721491
 H         -33.369629      -99.621887      -31.760199
