20
 generated by VMD
 C         -31.788523      -76.436073      -24.633429
 N         -31.760080      -76.864105      -25.684309
 H         -29.554853      -77.302124      -22.583044
 H         -32.000801      -76.022667      -23.578119
 C         -28.575663      -77.692848      -22.193768
 C         -27.561697      -78.071388      -23.297237
 C         -28.571724      -78.627953      -20.969658
 C         -26.086670      -78.300407      -22.750456
 C         -27.214121      -78.965195      -20.452034
 C         -26.084499      -79.213066      -21.468975
 H         -27.461742      -77.302086      -23.952875
 H         -27.964287      -78.883453      -23.820103
 H         -29.188110      -78.147186      -20.142019
 H         -29.223913      -79.394936      -21.234262
 H         -25.682096      -77.322014      -22.591137
 H         -25.514263      -78.870934      -23.488625
 H         -27.215845      -79.830284      -19.820183
 H         -26.942989      -78.177002      -19.896574
 H         -25.102379      -79.231407      -20.947664
 H         -26.147074      -80.193718      -21.874063
