20
 generated by VMD
 C         -79.527534     -205.393173      -71.047005
 N         -80.274696     -206.202469      -71.399055
 H         -77.248795     -203.081482      -70.126877
 H         -78.941643     -204.731857      -70.458153
 C         -76.199425     -203.309280      -70.207710
 C         -75.284355     -202.157349      -70.493149
 C         -75.869217     -204.789230      -70.029617
 C         -73.843796     -202.630859      -70.490715
 C         -74.677231     -204.788940      -69.091019
 C         -73.486603     -204.003799      -69.627419
 H         -75.369881     -201.302078      -69.814003
 H         -75.589493     -201.714417      -71.445992
 H         -76.681839     -205.418945      -69.749702
 H         -75.570084     -205.236420      -70.946022
 H         -73.179710     -201.828232      -70.047386
 H         -73.548271     -202.810211      -71.599846
 H         -74.215820     -205.864655      -69.082161
 H         -74.947693     -204.624100      -68.075546
 H         -72.622719     -203.706055      -68.848587
 H         -72.896935     -204.651276      -70.363525
