20
 generated by VMD
 C         -24.974712      -70.839058      -16.793169
 N         -25.195753      -70.869629      -15.627627
 H         -23.902248      -68.722969      -18.603340
 H         -24.644892      -70.829071      -17.759567
 C         -24.456432      -68.739540      -19.551441
 C         -23.849430      -69.527267      -20.663605
 C         -25.912703      -68.168388      -19.588614
 C         -24.816736      -70.528618      -21.419010
 C         -26.799763      -69.109795      -20.481028
 C         -26.124735      -69.850540      -21.710922
 H         -23.083614      -70.108398      -20.165878
 H         -23.446192      -68.846649      -21.473164
 H         -26.425045      -68.198044      -18.574993
 H         -26.005281      -66.969788      -19.822771
 H         -25.116739      -71.388428      -20.807112
 H         -24.366529      -70.919746      -22.361607
 H         -27.745771      -68.578270      -20.819448
 H         -27.152842      -69.844681      -19.682865
 H         -26.791353      -70.576263      -22.290348
 H         -25.827253      -69.131660      -22.514212
