20
 generated by VMD
 C         -80.039337     -205.447586      -71.575058
 N         -80.016205     -206.632019      -71.535423
 H         -77.368111     -203.123901      -70.760124
 H         -79.975700     -204.397705      -71.549538
 C         -76.404495     -203.536469      -70.422768
 C         -75.234100     -202.635254      -70.603416
 C         -76.033379     -204.946503      -70.148354
 C         -73.766838     -203.161957      -70.326508
 C         -74.972481     -205.032440      -69.135147
 C         -73.654236     -204.575272      -69.674774
 H         -75.367378     -201.859528      -69.764671
 H         -75.286316     -202.051926      -71.504898
 H         -76.838150     -205.437149      -69.736320
 H         -75.792946     -205.537933      -70.991501
 H         -73.362373     -202.310791      -69.744606
 H         -73.259430     -203.081604      -71.325455
 H         -74.958923     -206.125397      -68.826424
 H         -75.224014     -204.501389      -68.194618
 H         -72.983360     -204.431229      -68.732986
 H         -73.081703     -205.132568      -70.394119
