20
 generated by VMD
 C          -2.025540      -14.284637        1.963033
 N          -1.611041      -15.301168        2.190835
 H          -3.886473      -16.414772        0.760528
 H          -4.337681      -17.074015       -0.792806
 C          -4.760656      -16.816143        0.190281
 C          -5.740314      -15.669968       -0.088073
 C          -5.378758      -18.071190        0.829347
 C          -7.104974      -16.095043       -0.623972
 C          -6.696826      -18.459295        0.122145
 C          -7.664138      -17.299717        0.168597
 H          -5.352731      -14.983994       -0.800518
 H          -5.865123      -15.100256        0.885490
 H          -4.663261      -18.899782        0.845975
 H          -5.655122      -17.876455        1.887814
 H          -6.964873      -16.419615       -1.659632
 H          -7.818543      -15.226820       -0.578330
 H          -7.103879      -19.298138        0.655195
 H          -6.478486      -18.736818       -0.914298
 H          -8.613778      -17.603874       -0.316895
 H          -7.840582      -16.997068        1.197984
