20
 generated by VMD
 C         -78.048019     -204.200668      -69.772095
 N         -79.091438     -203.688385      -69.972809
 H         -75.826767     -202.601379      -67.605049
 H         -77.111275     -204.652695      -69.299019
 C         -75.387138     -202.466644      -68.632744
 C         -75.802734     -201.235474      -69.436310
 C         -74.256920     -203.394791      -69.023987
 C         -74.935509     -201.269012      -70.763702
 C         -73.077705     -202.559814      -69.438301
 C         -73.480934     -201.300125      -70.277298
 H         -75.735443     -200.272888      -68.906006
 H         -76.851662     -201.248810      -69.853203
 H         -73.903969     -203.900940      -68.128899
 H         -74.663193     -203.942352      -69.838089
 H         -75.131905     -200.323532      -71.275970
 H         -75.167267     -202.080978      -71.405251
 H         -72.257111     -203.040649      -70.027092
 H         -72.623711     -202.212631      -68.426369
 H         -73.250648     -200.330551      -69.539818
 H         -72.801315     -201.234070      -71.140144
