20
 generated by VMD
 C         -30.202108      -75.949959      -23.076010
 N         -30.898348      -75.464241      -23.883982
 H         -29.064777      -78.802162      -21.481094
 H         -29.627071      -76.405769      -22.345312
 C         -28.216740      -78.187210      -21.606009
 C         -27.476004      -78.184891      -22.893814
 C         -27.630610      -77.469070      -20.436333
 C         -26.759874      -76.790298      -23.123907
 C         -26.892094      -76.203224      -20.731192
 C         -25.941856      -76.408043      -21.927607
 H         -28.181400      -78.202759      -23.667349
 H         -26.835884      -79.080902      -23.051153
 H         -28.353807      -77.194466      -19.784122
 H         -26.886061      -78.119568      -19.950386
 H         -27.419098      -75.972275      -23.535538
 H         -26.108166      -77.002205      -23.987043
 H         -26.269472      -75.911758      -19.841534
 H         -27.397270      -75.289536      -20.973024
 H         -25.619005      -75.414909      -22.195774
 H         -25.143892      -77.162361      -21.663187
