20
 generated by VMD
 C         -68.956848     -180.822037      -61.156921
 N         -69.928329     -180.955063      -60.511303
 H         -67.202110     -178.376022      -59.470459
 H         -68.114540     -180.826752      -61.807270
 C         -66.274170     -177.820145      -59.845261
 C         -65.903061     -178.033844      -61.354511
 C         -65.296143     -177.344986      -58.753677
 C         -65.038734     -176.739914      -61.682678
 C         -64.610237     -176.073227      -59.326931
 C         -63.982143     -176.332367      -60.600323
 H         -66.760422     -178.089310      -62.039753
 H         -65.278679     -178.900650      -61.448994
 H         -65.873283     -176.942520      -57.807240
 H         -64.626442     -178.111725      -58.405468
 H         -65.632248     -175.781265      -61.934502
 H         -64.327324     -176.911255      -62.557529
 H         -63.933590     -175.676987      -58.611988
 H         -65.301422     -175.215698      -59.502636
 H         -63.360386     -175.498260      -61.122799
 H         -63.243500     -177.133972      -60.507259
