20
 generated by VMD
 C         -50.106556     -144.857941      -44.511982
 N         -49.380898     -144.017639      -44.680302
 H         -52.606228     -142.326920      -45.631313
 H         -50.761387     -145.631943      -44.221191
 C         -53.119949     -142.250473      -46.603241
 C         -52.386822     -142.418152      -47.998676
 C         -54.522976     -141.718155      -46.598312
 C         -53.366280     -142.657333      -49.192368
 C         -55.299107     -142.126312      -47.824642
 C         -54.581139     -141.790375      -49.106564
 H         -51.558750     -143.212082      -47.846615
 H         -51.934822     -141.381897      -48.213951
 H         -55.101410     -142.035645      -45.715942
 H         -54.531460     -140.537277      -46.577091
 H         -53.754734     -143.666260      -49.139668
 H         -52.849194     -142.601822      -50.133251
 H         -56.310913     -141.644623      -47.914845
 H         -55.534027     -143.194595      -47.668598
 H         -55.360023     -142.060608      -49.848175
 H         -54.324356     -140.706100      -49.169037
