20
 generated by VMD
 C         -20.973747      -52.244930      -11.187986
 N         -21.457039      -53.010735      -10.499545
 H         -19.649393      -50.282497      -13.544500
 H         -20.411827      -51.187836      -11.793464
 C         -18.784910      -50.733463      -13.055932
 C         -18.453686      -52.008938      -13.794751
 C         -17.851828      -49.965199      -12.123154
 C         -17.041067      -51.831860      -14.259090
 C         -16.415409      -50.002266      -12.534950
 C         -16.098188      -51.407188      -13.137365
 H         -19.180569      -52.081486      -14.627398
 H         -18.619856      -52.854301      -13.148884
 H         -18.171492      -48.941860      -11.949196
 H         -18.029137      -50.460457      -11.112443
 H         -17.098345      -51.110420      -15.076658
 H         -16.637608      -52.698128      -14.740965
 H         -15.810886      -49.710873      -11.727161
 H         -16.209402      -49.291698      -13.350562
 H         -15.162399      -51.332317      -13.635211
 H         -16.066151      -52.151665      -12.383444
