20
 generated by VMD
 C         -78.465981     -209.315735      -77.011017
 N         -78.223953     -209.243500      -78.129005
 H         -79.002502     -211.140610      -73.927635
 H         -78.734718     -209.363281      -76.028580
 C         -79.059891     -211.872742      -73.112206
 C         -77.924019     -212.088577      -72.153122
 C         -80.227196     -212.773468      -72.849342
 C         -78.222801     -212.470245      -70.679718
 C         -80.569000     -213.106079      -71.350761
 C         -79.263885     -213.540817      -70.545311
 H         -77.280998     -211.205124      -72.042549
 H         -77.341232     -212.882614      -72.641312
 H         -81.128220     -212.349655      -73.409973
 H         -80.106987     -213.748306      -73.297600
 H         -78.772667     -211.658432      -70.190041
 H         -77.196907     -212.557266      -70.235031
 H         -81.243080     -213.853470      -71.377350
 H         -80.882721     -212.092239      -70.925903
 H         -79.552109     -213.595215      -69.481262
 H         -79.019936     -214.568207      -71.022041
