20
 generated by VMD
 C         -58.430977     -160.334061      -56.927166
 N         -58.645741     -159.846359      -57.977589
 H         -58.892906     -163.438599      -54.957329
 H         -58.300365     -160.763611      -55.943249
 C         -59.675114     -163.182251      -54.222904
 C         -59.421223     -163.161713      -52.807232
 C         -61.127613     -163.360825      -54.615124
 C         -60.374859     -162.274124      -52.141834
 C         -61.885857     -162.199127      -54.142197
 C         -61.835762     -162.190903      -52.635483
 H         -58.426769     -162.684082      -52.558216
 H         -59.643360     -164.228088      -52.407612
 H         -61.243542     -163.508759      -55.636799
 H         -61.591164     -164.292847      -54.156376
 H         -59.996059     -161.147995      -52.213959
 H         -60.381542     -162.459412      -51.085346
 H         -62.858677     -162.362900      -54.554558
 H         -61.550690     -161.227417      -54.460037
 H         -62.335358     -161.270477      -52.308338
 H         -62.438473     -163.097733      -52.311695
