20
 generated by VMD
 C         -30.049898      -92.194405      -25.639793
 N         -29.274738      -92.319214      -24.817331
 H         -32.355976      -89.958183      -26.567850
 H         -30.941511      -92.207718      -26.362242
 C         -33.131901      -90.190399      -27.304024
 C         -34.135113      -91.375580      -27.245502
 C         -33.293159      -89.316330      -28.507261
 C         -35.507999      -91.134804      -27.759836
 C         -34.723125      -89.289200      -29.162151
 C         -35.548855      -90.547737      -29.135824
 H         -33.974037      -91.761719      -26.282768
 H         -33.576118      -92.128883      -27.820719
 H         -33.148533      -88.216286      -28.386919
 H         -32.547218      -89.530647      -29.332760
 H         -35.930515      -90.422081      -26.953371
 H         -36.178944      -91.998032      -27.752939
 H         -34.622372      -89.003052      -30.201174
 H         -35.381325      -88.528534      -28.694548
 H         -36.634357      -90.438416      -29.255484
 H         -35.191509      -91.207626      -29.931433
