20
 generated by VMD
 C         -50.584831     -129.113083      -44.152020
 N         -50.941124     -130.237808      -44.398922
 H         -49.050159     -128.043335      -41.329346
 H         -50.367100     -128.101852      -43.884960
 C         -48.063156     -128.409729      -41.106445
 C         -47.809132     -129.921585      -41.051105
 C         -47.027115     -127.398560      -40.850746
 C         -46.404839     -130.259293      -41.568199
 C         -45.651920     -127.809982      -41.447533
 C         -45.405571     -129.240738      -40.969055
 H         -48.506973     -130.350159      -41.671555
 H         -47.944172     -130.262375      -39.937138
 H         -47.405205     -126.291000      -41.099266
 H         -47.025200     -127.370033      -39.792950
 H         -46.403320     -130.304153      -42.652309
 H         -45.987366     -131.177246      -41.172413
 H         -44.974140     -127.060059      -40.986683
 H         -45.844437     -127.513863      -42.506798
 H         -44.356930     -129.516083      -41.244328
 H         -45.550995     -129.318161      -39.889900
