20
 generated by VMD
 C         -10.327477      -33.202824       -9.464672
 N         -11.055894      -32.506889       -8.916785
 H         -11.932153      -36.395123       -7.997465
 H         -12.476958      -35.758713       -6.367812
 C         -12.515162      -36.645111       -7.078223
 C         -11.901282      -37.900314       -6.425523
 C         -13.969904      -36.891121       -7.388106
 C         -12.603946      -38.343517       -5.157625
 C         -14.741508      -37.168697       -6.155907
 C         -14.130261      -38.342129       -5.363045
 H         -10.829823      -37.773670       -6.272925
 H         -12.003989      -38.685448       -7.167889
 H         -14.382075      -36.110664       -7.974920
 H         -14.044790      -37.785110       -8.076379
 H         -12.455794      -37.758957       -4.293206
 H         -12.311691      -39.386829       -4.974265
 H         -15.760992      -37.350437       -6.338441
 H         -14.755347      -36.257183       -5.454394
 H         -14.532549      -38.283348       -4.315958
 H         -14.502743      -39.319885       -5.742085
