20
 generated by VMD
 C         -30.792114      -78.035995      -25.282726
 N         -31.595942      -77.217110      -25.149658
 H         -29.366760      -76.994865      -22.446873
 H         -30.139269      -78.947639      -24.967409
 C         -28.834154      -77.974548      -22.583364
 C         -27.412161      -77.974937      -23.152750
 C         -29.270428      -79.063110      -21.661695
 C         -26.405567      -78.981102      -22.560421
 C         -28.205067      -79.807785      -21.024612
 C         -27.066284      -80.271652      -21.976677
 H         -26.992708      -77.005424      -23.223139
 H         -27.512623      -78.175278      -24.167446
 H         -30.120892      -78.745193      -20.974363
 H         -29.869068      -79.652611      -22.330072
 H         -25.890118      -78.395454      -21.821917
 H         -25.716742      -79.432838      -23.269981
 H         -28.662966      -80.659302      -20.622448
 H         -27.810940      -79.061218      -20.342321
 H         -26.320278      -80.859161      -21.367271
 H         -27.383190      -80.891113      -22.852995
