20
 generated by VMD
 C         -79.863457     -206.885544      -74.068420
 N         -80.543045     -207.154175      -74.970108
 H         -77.000366     -206.955429      -72.818283
 H         -79.367599     -206.488251      -73.135696
 C         -76.654060     -207.525208      -71.997192
 C         -75.320503     -207.301758      -71.411636
 C         -77.563881     -208.584549      -71.510567
 C         -75.552681     -206.977066      -69.956017
 C         -77.571053     -208.470535      -69.998634
 C         -76.367622     -208.048676      -69.212074
 H         -74.828941     -206.479858      -71.916595
 H         -74.677002     -208.163254      -71.369362
 H         -78.600624     -208.598785      -71.978882
 H         -77.041428     -209.478180      -71.820244
 H         -76.182945     -206.041748      -69.831627
 H         -74.718941     -206.691925      -69.316811
 H         -77.806664     -209.539917      -69.636536
 H         -78.484146     -207.897659      -69.733940
 H         -76.903954     -207.611908      -68.458099
 H         -75.692268     -208.841309      -68.818115
