20
 generated by VMD
 C         -40.229755     -116.929733      -34.409321
 N         -39.406719     -116.093880      -34.557587
 H         -41.375256     -116.155472      -37.848915
 H         -40.697655     -117.842552      -34.260883
 C         -42.475685     -116.043083      -37.964424
 C         -43.195282     -115.938271      -39.255817
 C         -43.277840     -115.929070      -36.713799
 C         -44.532566     -116.687500      -39.247871
 C         -44.514282     -116.826721      -36.806797
 C         -45.454067     -116.431252      -37.984375
 H         -42.537193     -116.332336      -40.006466
 H         -43.289913     -114.922005      -39.560516
 H         -42.752312     -116.136292      -35.723537
 H         -43.643402     -114.878624      -36.593071
 H         -44.375198     -117.788689      -39.257545
 H         -45.059956     -116.392189      -40.211552
 H         -45.122765     -116.724709      -35.938442
 H         -44.146667     -117.811981      -36.776646
 H         -46.287033     -117.187401      -38.201241
 H         -45.607594     -115.354370      -38.033653
