20
 generated by VMD
 C         -12.613165      -30.254217       -8.099398
 N         -13.130453      -30.578661       -7.163639
 H         -11.344721      -30.539660       -5.464657
 H         -10.676780      -30.866100       -3.756699
 C         -10.911815      -31.272684       -4.745511
 C          -9.597914      -31.746689       -5.285697
 C         -12.005130      -32.302677       -4.601863
 C          -8.988751      -33.052189       -4.634342
 C         -11.417583      -33.534111       -3.930667
 C         -10.158772      -34.112225       -4.509558
 H          -8.878388      -30.948921       -5.255127
 H          -9.747099      -31.946390       -6.402985
 H         -12.865091      -31.944300       -4.051474
 H         -12.293809      -32.534679       -5.622211
 H          -8.622344      -32.768848       -3.662302
 H          -8.134149      -33.351978       -5.210901
 H         -12.234364      -34.347351       -4.013936
 H         -11.285734      -33.371700       -2.882859
 H          -9.829638      -34.973415       -3.908381
 H         -10.445269      -34.333015       -5.493077
