20
 generated by VMD
 C         -30.346212      -94.147018      -25.698318
 N         -29.846138      -93.577583      -24.771818
 H         -33.849545      -92.962257      -27.099815
 H         -30.730917      -94.741806      -26.445654
 C         -34.353584      -92.209061      -27.723970
 C         -35.792629      -92.352905      -27.976048
 C         -33.420231      -91.731682      -28.790489
 C         -36.375813      -91.284866      -28.910114
 C         -34.144238      -90.576355      -29.527300
 C         -35.456825      -91.134102      -30.159376
 H         -36.187954      -92.281921      -27.020563
 H         -36.126175      -93.271210      -28.408283
 H         -32.505600      -91.283936      -28.417179
 H         -33.158821      -92.542725      -29.409378
 H         -36.492542      -90.307381      -28.395403
 H         -37.421352      -91.619797      -29.237642
 H         -33.570404      -90.262756      -30.362885
 H         -34.377548      -89.665169      -28.899660
 H         -35.895805      -90.389244      -30.841591
 H         -35.503731      -92.158493      -30.529106
