20
 generated by VMD
 C          -2.051465      -14.534998        1.839465
 N          -1.582763      -15.360368        2.429448
 H          -4.029854      -16.371954        0.715690
 H          -4.261833      -17.016994       -0.895031
 C          -4.808753      -16.798437        0.064891
 C          -5.816050      -15.674095       -0.154189
 C          -5.373097      -18.016907        0.780132
 C          -7.156854      -16.193987       -0.723700
 C          -6.704800      -18.467720        0.202382
 C          -7.664775      -17.382605        0.116752
 H          -5.486347      -14.856656       -0.800136
 H          -5.966905      -15.205929        0.848905
 H          -4.602106      -18.892227        0.731773
 H          -5.520169      -17.844225        1.925777
 H          -6.972391      -16.585939       -1.721331
 H          -7.871181      -15.401370       -0.745353
 H          -7.051149      -19.338575        0.763783
 H          -6.460556      -18.741838       -0.790778
 H          -8.681061      -17.680294       -0.228260
 H          -7.724376      -16.966087        1.150168
