20
 generated by VMD
 C         -42.079994     -101.559135      -33.452065
 N         -41.036537     -101.752876      -33.849026
 H         -38.886436     -103.726288      -32.908974
 H         -42.986118     -101.736794      -32.978115
 C         -38.031975     -103.780136      -32.163284
 C         -36.818695     -103.459038      -33.066818
 C         -37.738403     -104.176529      -30.797392
 C         -35.597065     -102.773300      -32.369732
 C         -36.658871     -103.371925      -30.195742
 C         -35.305553     -103.350342      -31.022730
 H         -37.168106     -102.801460      -33.879929
 H         -36.555611     -104.442406      -33.490955
 H         -38.726261     -103.949135      -30.234730
 H         -37.519203     -105.199516      -30.831242
 H         -35.661663     -101.706093      -32.238747
 H         -34.723228     -102.949738      -32.914433
 H         -36.514874     -103.656509      -29.169754
 H         -37.067513     -102.269478      -30.170317
 H         -34.562546     -102.814552      -30.518969
 H         -34.912285     -104.369896      -31.023132
