20
 generated by VMD
 C         -49.479977     -132.957520      -47.135674
 N         -49.762581     -131.861237      -47.007622
 H         -47.852993     -134.274078      -44.489845
 H         -48.895470     -133.893311      -47.130795
 C         -48.644691     -134.589890      -43.826450
 C         -49.142292     -135.988068      -43.893738
 C         -49.452145     -133.557602      -42.994659
 C         -49.994305     -136.522354      -42.744839
 C         -50.347130     -134.146484      -41.916763
 C         -51.013096     -135.485657      -42.281448
 H         -48.203014     -136.599121      -43.880302
 H         -49.606770     -136.138260      -44.837143
 H         -48.727951     -132.796280      -42.689827
 H         -50.095306     -133.083237      -43.683365
 H         -49.341934     -136.717865      -41.837700
 H         -50.440300     -137.505722      -43.213776
 H         -51.223839     -133.552917      -41.577087
 H         -49.625683     -134.274048      -41.016232
 H         -51.800579     -135.894119      -41.505894
 H         -51.813877     -135.385681      -43.141033
