20
 generated by VMD
 C         -61.722393     -172.362793      -54.934765
 N         -60.813244     -172.967361      -55.213531
 H         -62.019466     -170.669052      -58.264927
 H         -62.629841     -171.886887      -54.680962
 C         -62.831383     -170.072815      -57.775875
 C         -62.497402     -168.629974      -57.798504
 C         -64.161270     -170.635818      -57.747677
 C         -63.438564     -167.877686      -58.705315
 C         -65.155533     -169.835144      -58.699680
 C         -64.885864     -168.303802      -58.273495
 H         -61.347267     -168.409958      -58.109921
 H         -62.553398     -168.223083      -56.860886
 H         -64.194908     -171.725677      -58.054165
 H         -64.691620     -170.647186      -56.755508
 H         -63.170464     -168.063995      -59.693909
 H         -63.235512     -166.840836      -58.483215
 H         -66.200783     -170.073425      -58.554169
 H         -64.905968     -169.913010      -59.755192
 H         -65.708336     -167.680496      -58.841904
 H         -65.079018     -168.139221      -57.198841
