20
 generated by VMD
 C         -79.269127     -204.599091      -70.740875
 N         -80.322342     -205.153870      -70.719612
 H         -76.745461     -203.040482      -68.626472
 H         -78.362007     -204.008270      -70.965408
 C         -75.852745     -202.989319      -69.169792
 C         -75.658821     -202.158295      -70.413811
 C         -74.751747     -203.933228      -68.849762
 C         -74.215996     -201.483490      -70.342964
 C         -73.324501     -203.654419      -69.232948
 C         -73.199272     -202.565414      -70.297821
 H         -76.474487     -201.331482      -70.400475
 H         -75.791412     -202.730133      -71.313858
 H         -74.874771     -204.325592      -67.838043
 H         -74.999435     -204.946686      -69.245178
 H         -74.085678     -200.825089      -69.437508
 H         -74.119568     -200.824051      -71.232521
 H         -72.715050     -204.514496      -69.283264
 H         -72.906502     -203.214172      -68.241776
 H         -72.129921     -202.222549      -70.277184
 H         -73.180443     -202.931656      -71.332558
