20
 generated by VMD
 C          -2.056123      -14.751539        1.773157
 N          -1.578674      -15.370679        2.577080
 H          -3.857110      -16.363079        0.356080
 H          -4.621980      -17.118746       -0.998652
 C          -4.812097      -16.771715       -0.007945
 C          -5.905769      -15.676384       -0.170789
 C          -5.317415      -17.987522        0.770825
 C          -7.147994      -16.275553       -0.778229
 C          -6.669892      -18.507183        0.226714
 C          -7.740578      -17.376886        0.109627
 H          -5.484886      -14.923464       -0.844102
 H          -6.128741      -15.233131        0.800738
 H          -4.581236      -18.745077        0.701675
 H          -5.427439      -17.721531        1.781261
 H          -7.027364      -16.720182       -1.792859
 H          -7.920322      -15.437275       -0.863743
 H          -7.004822      -19.258347        0.954981
 H          -6.500117      -19.056908       -0.757436
 H          -8.550125      -17.746296       -0.513646
 H          -8.162577      -16.996088        1.027563
