20
 generated by VMD
 C         -27.881933      -82.803162      -27.311235
 N         -27.179703      -83.410393      -26.623367
 H         -31.463224      -84.141945      -26.567797
 H         -28.560041      -82.186554      -28.022121
 C         -31.838652      -84.945992      -25.831438
 C         -31.462934      -84.939346      -24.314117
 C         -32.292706      -86.260063      -26.359110
 C         -32.504459      -85.675041      -23.535677
 C         -33.211311      -87.093216      -25.421249
 C         -32.766338      -87.080574      -23.929447
 H         -31.219374      -83.870781      -23.896008
 H         -30.558695      -85.541901      -24.369034
 H         -32.808254      -86.202499      -27.320024
 H         -31.323647      -86.807526      -26.528234
 H         -33.390972      -85.048592      -23.475685
 H         -32.284763      -85.660484      -22.485844
 H         -33.293705      -88.140839      -25.732918
 H         -34.258396      -86.700211      -25.332338
 H         -33.727062      -87.505165      -23.550095
 H         -31.967245      -87.731277      -23.770317
