20
 generated by VMD
 C         -46.538818     -124.444786      -36.413673
 N         -46.982880     -125.234207      -35.699272
 H         -44.640285     -122.009071      -37.939716
 H         -45.998810     -123.756310      -37.055496
 C         -44.575729     -121.754013      -39.050171
 C         -43.348122     -121.731781      -39.772568
 C         -45.729996     -120.923630      -39.528976
 C         -43.505783     -121.922112      -41.283821
 C         -45.952492     -121.195030      -41.035915
 C         -44.647018     -121.129173      -41.881096
 H         -42.500961     -122.410027      -39.383659
 H         -42.998421     -120.782227      -39.486408
 H         -46.627415     -121.231728      -38.970833
 H         -45.495758     -119.874603      -39.297249
 H         -43.781696     -123.035179      -41.455826
 H         -42.491817     -121.549622      -41.755440
 H         -46.777534     -120.563301      -41.306026
 H         -46.377090     -122.276703      -41.129238
 H         -44.948730     -121.523666      -42.859745
 H         -44.321407     -120.059715      -41.949234
