20
 generated by VMD
 C         -12.387021      -28.411699       -5.660996
 N         -13.309729      -27.824747       -5.902783
 H         -11.727775      -31.575285       -4.097699
 H         -11.256525      -30.109404       -4.978597
 C         -10.887538      -30.896851       -4.343768
 C          -9.797056      -31.768206       -5.010816
 C         -10.312946      -30.443998       -3.027649
 C          -8.540782      -30.963249       -5.246953
 C          -9.225634      -29.499624       -3.288706
 C          -8.082939      -30.262123       -3.946164
 H         -10.319654      -32.081619       -5.877106
 H          -9.586127      -32.687153       -4.362074
 H         -11.119897      -29.923313       -2.429000
 H          -9.989972      -31.344833       -2.458856
 H          -8.732923      -30.187677       -6.057650
 H          -7.706974      -31.643837       -5.510380
 H          -8.886998      -29.095186       -2.364764
 H          -9.563904      -28.597414       -3.882567
 H          -7.326116      -29.493322       -4.241054
 H          -7.810743      -30.995838       -3.197495
