20
 generated by VMD
 C         -23.039503      -54.838367      -16.671545
 N         -23.743786      -55.245930      -15.804947
 H         -19.470575      -55.164253      -15.505773
 H         -22.220181      -54.866810      -17.235636
 C         -18.990961      -55.835239      -14.770885
 C         -19.345158      -55.707706      -13.281880
 C         -18.511915      -57.169582      -15.211405
 C         -20.159184      -56.983490      -12.795695
 C         -19.419586      -58.235699      -14.711942
 C         -19.377785      -58.235100      -13.270400
 H         -19.939989      -54.812035      -13.069936
 H         -18.415167      -55.615883      -12.658098
 H         -18.487869      -57.171959      -16.279972
 H         -17.495371      -57.294945      -14.828334
 H         -21.191883      -56.972992      -13.130910
 H         -20.246729      -56.943928      -11.671339
 H         -19.039152      -59.149628      -15.080875
 H         -20.495499      -58.086121      -14.998136
 H         -19.879501      -59.103718      -12.891758
 H         -18.351954      -58.305298      -12.824312
