20
 generated by VMD
 C         -59.443638     -158.320480      -57.453682
 N         -58.444931     -158.439636      -57.928841
 H         -60.022812     -158.791260      -54.026943
 H         -60.420078     -158.249710      -56.991997
 C         -59.813629     -159.441132      -53.181828
 C         -58.588856     -159.319000      -52.347218
 C         -60.657463     -160.689865      -53.263329
 C         -58.531921     -160.433289      -51.347988
 C         -60.586082     -161.551865      -52.060638
 C         -59.219067     -161.777069      -51.654488
 H         -58.585953     -158.357010      -51.899796
 H         -57.697018     -159.265854      -52.974831
 H         -61.760651     -160.391647      -53.321892
 H         -60.483936     -161.395508      -54.124016
 H         -59.077728     -160.172562      -50.502701
 H         -57.422619     -160.730927      -51.252026
 H         -61.088093     -162.479782      -52.378410
 H         -61.165890     -161.231323      -51.125431
 H         -59.252831     -162.330673      -50.742077
 H         -58.771461     -162.200729      -52.548546
