20
 generated by VMD
 C         -52.838936     -146.645248      -44.516994
 N         -51.791637     -146.712738      -44.953266
 H         -54.108086     -146.187607      -47.347248
 H         -53.803852     -146.522156      -43.991077
 C         -53.966572     -145.279190      -47.918457
 C         -52.960667     -145.178757      -48.911301
 C         -54.878490     -144.113571      -47.643528
 C         -53.480373     -144.530746      -50.220333
 C         -55.323727     -143.476761      -48.934402
 C         -54.134399     -143.145554      -49.890995
 H         -52.454079     -146.133865      -49.228329
 H         -52.125214     -144.539154      -48.440941
 H         -55.754784     -144.482910      -47.017422
 H         -54.468937     -143.368073      -46.949028
 H         -54.298000     -145.209259      -50.724960
 H         -52.794220     -144.308090      -51.118664
 H         -55.729733     -142.413681      -48.618645
 H         -56.165195     -144.024445      -49.341732
 H         -54.482719     -142.471985      -50.793064
 H         -53.388638     -142.598846      -49.251072
