20
 generated by VMD
 C          -2.829579       -9.253843        0.033974
 N          -1.737051       -9.107756        0.147408
 H          -2.221596      -11.690007        2.627958
 H          -2.901659      -12.342671        4.250384
 C          -2.914309      -12.359971        3.119209
 C          -2.561135      -13.807006        2.752942
 C          -4.232645      -11.842506        2.607779
 C          -3.792231      -14.712114        2.906815
 C          -5.377775      -12.846210        3.016991
 C          -5.128132      -14.228209        2.375306
 H          -1.779643      -14.270810        3.412542
 H          -2.247618      -13.960231        1.713688
 H          -4.445815      -10.836470        3.092222
 H          -4.199453      -11.707394        1.512985
 H          -3.972408      -14.947785        3.964017
 H          -3.591311      -15.697742        2.386255
 H          -6.332773      -12.457516        2.622119
 H          -5.436233      -12.893110        4.099277
 H          -5.941883      -14.864558        2.616445
 H          -5.120199      -14.147044        1.299589
