20
 generated by VMD
 C         -30.368118      -74.132423      -20.772484
 N         -30.137564      -75.234840      -20.437864
 H         -27.463467      -74.591949      -19.405083
 H         -30.407972      -73.282005      -21.409750
 C         -26.629309      -74.444763      -20.091644
 C         -26.169189      -75.617935      -21.003290
 C         -25.948717      -73.077591      -20.373098
 C         -26.021219      -75.199440      -22.549242
 C         -25.879021      -72.802696      -21.871325
 C         -25.154564      -73.873070      -22.655762
 H         -26.948736      -76.364487      -21.020840
 H         -25.195501      -76.049561      -20.649826
 H         -26.694078      -72.362846      -19.964186
 H         -25.019417      -72.972801      -19.958271
 H         -27.061829      -75.226891      -22.960524
 H         -25.436460      -75.959961      -23.108675
 H         -25.197886      -71.990982      -22.009277
 H         -26.854147      -72.503265      -22.335238
 H         -24.903618      -73.511711      -23.714520
 H         -24.107704      -74.044510      -22.288330
