20
 generated by VMD
 C         -20.099518      -60.351898      -16.968454
 N         -19.048044      -60.264999      -17.390703
 H         -23.283712      -60.564224      -16.993013
 H         -21.199677      -60.462231      -16.739126
 C         -23.194546      -61.641068      -16.862671
 C         -23.357740      -62.460938      -18.059431
 C         -23.373356      -62.137993      -15.400295
 C         -23.695267      -63.892204      -17.737720
 C         -23.118475      -63.661282      -15.319408
 C         -23.987125      -64.410767      -16.257519
 H         -22.402424      -62.432983      -18.538479
 H         -24.043095      -62.024372      -18.659687
 H         -22.517416      -61.733093      -14.872024
 H         -24.328997      -61.901398      -15.035654
 H         -22.822632      -64.522278      -18.052835
 H         -24.632282      -64.254623      -18.236937
 H         -23.231281      -63.929256      -14.271243
 H         -22.083729      -63.795231      -15.645098
 H         -23.709223      -65.478455      -16.247177
 H         -25.021452      -64.318741      -15.992089
