20
 generated by VMD
 C         -79.235115     -209.141373      -76.804756
 N         -79.020729     -209.956757      -76.034378
 H         -77.629807     -209.693939      -73.457672
 H         -79.414009     -208.471710      -77.560570
 C         -78.098282     -210.368927      -72.672813
 C         -77.205193     -210.828903      -71.588394
 C         -79.180977     -211.398575      -73.054001
 C         -77.834183     -211.559708      -70.402199
 C         -79.922043     -211.840302      -71.800995
 C         -78.973434     -212.550461      -70.788467
 H         -76.566101     -209.907318      -71.345665
 H         -76.519478     -211.596970      -72.060188
 H         -79.846558     -211.045303      -73.768997
 H         -78.792221     -212.365997      -73.455917
 H         -78.289619     -210.726700      -69.808167
 H         -77.104370     -211.995972      -69.689850
 H         -80.677048     -212.621857      -72.092743
 H         -80.420700     -211.033005      -71.372787
 H         -79.641113     -212.918320      -69.969269
 H         -78.478172     -213.429932      -71.226822
