20
 generated by VMD
 C         -23.040985      -54.416626      -15.106410
 N         -23.926313      -53.810879      -15.542190
 H         -20.320940      -54.741428      -15.442492
 H         -22.144144      -54.732189      -14.940363
 C         -19.867367      -55.290615      -14.567168
 C         -19.138557      -54.485477      -13.498295
 C         -19.103626      -56.543709      -15.069688
 C         -18.471886      -55.470478      -12.467504
 C         -18.452154      -57.443146      -14.031414
 C         -17.666475      -56.617348      -13.030806
 H         -19.775640      -53.870026      -12.853992
 H         -18.494276      -53.704712      -13.974432
 H         -19.649921      -57.113773      -15.741557
 H         -18.332184      -56.201694      -15.803719
 H         -19.306751      -55.943851      -11.923563
 H         -17.756575      -54.898930      -11.796023
 H         -17.727755      -58.143646      -14.509862
 H         -19.257374      -58.051563      -13.540566
 H         -17.477560      -57.290810      -12.216229
 H         -16.771648      -56.179245      -13.526050
