20
 generated by VMD
 C         -28.443287      -84.639870      -26.405006
 N         -28.007277      -83.723740      -27.005175
 H         -31.325907      -84.529938      -26.193361
 H         -29.020409      -85.353539      -25.798584
 C         -31.361511      -85.518318      -25.801531
 C         -31.538685      -85.613907      -24.340101
 C         -31.886995      -86.518410      -26.646067
 C         -32.891254      -86.059143      -23.916939
 C         -33.265968      -87.089302      -26.199232
 C         -33.338413      -87.394150      -24.658199
 H         -31.159954      -84.768166      -23.903416
 H         -30.741941      -86.335274      -24.046396
 H         -31.895355      -86.146706      -27.699593
 H         -31.280005      -87.389229      -26.606117
 H         -33.673851      -85.316345      -23.930643
 H         -32.810600      -86.169556      -22.828691
 H         -33.487354      -88.031395      -26.758236
 H         -34.117306      -86.359314      -26.538149
 H         -34.377739      -87.667740      -24.473747
 H         -32.699818      -88.238800      -24.260132
