20
 generated by VMD
 C         -13.398820      -27.955206       -2.742123
 N         -14.012401      -27.207638       -3.305677
 H         -10.426469      -27.874466       -3.131033
 H          -9.885380      -26.825298       -4.425146
 C          -9.539998      -27.604805       -3.696049
 C          -8.954644      -28.767126       -4.393789
 C          -8.606839      -26.885658       -2.723149
 C          -7.502299      -28.552299       -4.885615
 C          -7.141133      -26.615057       -3.308760
 C          -6.546899      -27.880617       -3.912775
 H          -9.501987      -29.213301       -5.308938
 H          -8.961442      -29.588799       -3.717696
 H          -9.093082      -25.931330       -2.378605
 H          -8.421750      -27.515743       -1.857796
 H          -7.583823      -27.961981       -5.810016
 H          -7.178153      -29.537546       -5.310542
 H          -6.493508      -26.161272       -2.567875
 H          -7.167425      -25.881805       -4.103107
 H          -5.562047      -27.733467       -4.407957
 H          -6.413208      -28.580793       -3.100167
