20
 generated by VMD
 C         -56.502380     -150.143463      -47.635071
 N         -57.653408     -150.349487      -47.839581
 H         -53.566677     -148.393311      -47.330330
 H         -55.447281     -149.808716      -47.579895
 C         -53.705761     -148.004913      -48.335026
 C         -53.024612     -148.441696      -49.711304
 C         -54.430443     -146.673126      -48.623356
 C         -54.161983     -148.731842      -50.663486
 C         -55.589138     -146.846390      -49.663689
 C         -54.949459     -147.434982      -50.936131
 H         -52.461571     -149.320023      -49.544540
 H         -52.421349     -147.564423      -49.857460
 H         -54.748077     -146.010406      -47.768948
 H         -53.763222     -145.964371      -49.112614
 H         -54.756779     -149.439560      -50.062141
 H         -53.828262     -149.162949      -51.625927
 H         -56.067062     -145.782623      -50.000992
 H         -56.362320     -147.403763      -49.184151
 H         -55.737030     -147.560669      -51.737610
 H         -54.220829     -146.678818      -51.257481
