20
 generated by VMD
 C         -47.543217     -139.389923      -45.816010
 N         -46.719955     -138.851776      -46.389832
 H         -50.933891     -138.309998      -44.766220
 H         -48.417435     -139.816177      -45.304184
 C         -51.745625     -138.873306      -45.219883
 C         -51.838989     -139.320663      -46.643822
 C         -53.080364     -138.700134      -44.447330
 C         -53.058571     -140.315979      -46.941093
 C         -54.185234     -139.683594      -44.764206
 C         -54.366150     -139.838257      -46.348270
 H         -50.965725     -139.747604      -47.088634
 H         -52.024872     -138.390060      -47.187210
 H         -52.843578     -138.788147      -43.399647
 H         -53.429039     -137.691940      -44.603176
 H         -52.719135     -141.319168      -46.618355
 H         -53.100266     -140.369934      -48.050919
 H         -55.181877     -139.270462      -44.469593
 H         -54.044086     -140.501709      -44.157410
 H         -55.181911     -140.603897      -46.545216
 H         -54.612389     -138.695374      -46.850430
