20
 generated by VMD
 C         -38.995716     -115.989563      -35.301346
 N         -39.428257     -115.395332      -34.419434
 H         -41.364990     -115.773949      -37.215958
 H         -38.900429     -116.605278      -36.122261
 C         -42.450535     -115.762115      -37.434933
 C         -43.015251     -115.537567      -38.792801
 C         -43.345989     -115.721275      -36.226547
 C         -44.272694     -116.344826      -39.011028
 C         -44.777481     -116.170845      -36.410625
 C         -45.238277     -116.045189      -37.870918
 H         -42.284267     -115.866829      -39.546730
 H         -43.222824     -114.490707      -38.922081
 H         -42.869564     -116.512627      -35.551777
 H         -43.454510     -114.688835      -35.863258
 H         -44.219593     -117.454811      -39.008732
 H         -44.702278     -116.091087      -40.014729
 H         -45.464466     -115.496986      -35.798374
 H         -44.870811     -117.245506      -36.085747
 H         -46.145889     -116.566460      -37.926685
 H         -45.669884     -115.053383      -37.897060
