20
 generated by VMD
 C          -5.841913      -21.916359        1.911270
 N          -6.575061      -22.713978        2.193972
 H          -5.250729      -19.230667       -0.649642
 H          -6.516407      -20.224710       -0.059991
 C          -6.107070      -19.798660       -1.039850
 C          -5.658211      -20.984953       -1.934245
 C          -7.146027      -18.935741       -1.732479
 C          -6.820038      -21.883850       -2.329736
 C          -8.330797      -19.842657       -2.213218
 C          -7.932252      -21.132727       -3.002772
 H          -4.903400      -21.569048       -1.398169
 H          -5.310639      -20.568600       -2.870424
 H          -7.497635      -18.086212       -1.268038
 H          -6.696084      -18.508804       -2.594602
 H          -7.172324      -22.464319       -1.486945
 H          -6.453177      -22.671097       -2.983688
 H          -9.100905      -19.323385       -2.819679
 H          -8.936145      -20.098646       -1.325757
 H          -8.789311      -21.776064       -3.067398
 H          -7.658630      -20.827799       -3.997670
