20
 generated by VMD
 C         -58.198277     -166.814377      -56.046875
 N         -57.943848     -167.484589      -55.126259
 H         -60.893593     -165.834518      -54.913551
 H         -58.557682     -166.093124      -56.746895
 C         -61.632679     -165.763306      -55.681789
 C         -61.870625     -166.869461      -56.686489
 C         -62.510883     -164.552368      -55.539715
 C         -63.396854     -167.299393      -56.464073
 C         -63.965210     -165.101990      -55.517361
 C         -64.332367     -166.085876      -56.657757
 H         -61.265148     -167.734543      -56.656094
 H         -61.681320     -166.466324      -57.688099
 H         -62.258995     -163.924881      -54.615116
 H         -62.269150     -163.961380      -56.361420
 H         -63.499943     -167.746185      -55.514389
 H         -63.581600     -168.051086      -57.165665
 H         -64.754181     -164.306534      -55.510422
 H         -64.197823     -165.555252      -54.664452
 H         -65.307251     -166.570648      -56.481613
 H         -64.319908     -165.677704      -57.721462
