20
 generated by VMD
 C         -79.237801     -204.512024      -70.766335
 N         -80.259933     -205.110870      -70.671150
 H         -76.665764     -202.660843      -68.444725
 H         -78.262428     -204.057343      -70.577179
 C         -75.862732     -202.940552      -69.135040
 C         -75.595299     -202.214035      -70.392372
 C         -74.789398     -203.988022      -68.843628
 C         -74.318481     -201.466660      -70.225090
 C         -73.321487     -203.476990      -69.226051
 C         -73.144363     -202.564041      -70.432106
 H         -76.439865     -201.611664      -70.681450
 H         -75.408066     -203.046143      -71.113670
 H         -74.719734     -204.083817      -67.755379
 H         -75.044495     -204.888901      -69.468185
 H         -74.287125     -201.023041      -69.247284
 H         -74.204376     -200.751678      -71.008392
 H         -72.757011     -204.460495      -69.503578
 H         -72.789520     -202.931351      -68.345245
 H         -72.178268     -202.044601      -70.438477
 H         -73.275612     -203.275345      -71.359840
