20
 generated by VMD
 C         -61.848625     -172.370651      -54.951530
 N         -60.927162     -172.948059      -55.229527
 H         -61.958115     -170.839798      -57.433212
 H         -62.685303     -171.811310      -54.627377
 C         -62.696167     -170.170502      -57.825947
 C         -62.432713     -168.692749      -57.865723
 C         -64.144875     -170.712234      -57.903740
 C         -63.565666     -167.908585      -58.626320
 C         -65.070679     -169.788376      -58.635273
 C         -64.924591     -168.349686      -58.281033
 H         -61.567635     -168.477325      -58.359016
 H         -62.308647     -168.321686      -56.750046
 H         -64.199936     -171.665268      -58.409290
 H         -64.433617     -170.848267      -56.891594
 H         -63.433285     -168.140503      -59.757347
 H         -63.339355     -166.808823      -58.415962
 H         -66.091713     -170.141724      -58.360878
 H         -64.850594     -169.969452      -59.743374
 H         -65.764122     -167.863663      -58.707428
 H         -65.094162     -168.253769      -57.200954
