20
 generated by VMD
 C         -40.813824     -103.904854      -37.243591
 N         -40.673843     -104.720558      -36.445938
 H         -39.941631     -105.864975      -33.973366
 H         -41.066158     -102.964012      -37.732914
 C         -39.368748     -106.657173      -33.461952
 C         -38.072159     -106.297523      -32.794842
 C         -39.855362     -108.049545      -33.361126
 C         -37.883808     -106.916397      -31.452633
 C         -39.498230     -108.643227      -32.033920
 C         -38.065472     -108.354553      -31.375381
 H         -37.829494     -105.251205      -32.654484
 H         -37.311607     -106.783455      -33.528221
 H         -40.879868     -108.225761      -33.400345
 H         -39.443363     -108.620857      -34.239491
 H         -38.547306     -106.306145      -30.766588
 H         -36.840576     -106.633286      -31.235271
 H         -39.763378     -109.698975      -31.946011
 H         -40.206062     -108.149124      -31.309120
 H         -38.100071     -108.490501      -30.278330
 H         -37.253235     -109.016022      -31.762499
