20
 generated by VMD
 C         -43.181839     -120.882767      -35.471554
 N         -42.763695     -120.838135      -34.395813
 H         -44.128624     -121.595398      -38.774967
 H         -43.776840     -120.950729      -36.427097
 C         -44.118130     -120.462425      -38.691616
 C         -43.116676     -119.659599      -39.558601
 C         -45.256050     -119.531746      -38.212681
 C         -43.846134     -118.995605      -40.762383
 C         -45.907864     -118.774162      -39.371647
 C         -44.878338     -118.014870      -40.201962
 H         -42.425014     -120.408623      -39.982197
 H         -42.403286     -119.099609      -38.814880
 H         -45.976192     -120.133934      -37.644085
 H         -44.684071     -118.837372      -37.534584
 H         -44.359516     -119.644920      -41.553833
 H         -43.102695     -118.425468      -41.288731
 H         -46.680470     -118.165573      -38.975513
 H         -46.580669     -119.479797      -39.868923
 H         -45.358402     -117.410233      -40.941120
 H         -44.520374     -117.153534      -39.607513
