20
 generated by VMD
 C         -38.680126     -113.485199      -36.101494
 N         -37.534466     -113.659904      -36.041470
 H         -41.260921     -114.520210      -35.195740
 H         -39.725189     -113.281784      -36.279133
 C         -42.169998     -114.526253      -35.744537
 C         -42.198471     -114.552536      -37.255329
 C         -43.510742     -114.144302      -35.110489
 C         -43.483593     -115.125542      -37.907223
 C         -44.691704     -115.020699      -35.652210
 C         -44.788177     -114.668091      -37.187519
 H         -41.477962     -115.225739      -37.682468
 H         -42.137955     -113.674370      -37.759613
 H         -43.400307     -114.279266      -34.049789
 H         -43.512959     -113.124710      -35.405403
 H         -43.434544     -116.222061      -37.946739
 H         -43.556545     -114.879822      -38.988651
 H         -45.531906     -114.559937      -35.141739
 H         -44.564190     -116.131485      -35.579514
 H         -45.705780     -115.188789      -37.665531
 H         -44.960411     -113.573082      -37.456863
