20
 generated by VMD
 C         -19.894426      -58.858570      -17.299961
 N         -19.284094      -58.868183      -18.243555
 H         -22.595362      -59.650043      -16.259565
 H         -20.218987      -58.829407      -16.168093
 C         -22.715839      -60.707619      -16.175266
 C         -23.508236      -61.542374      -17.166397
 C         -22.663902      -61.262955      -14.806673
 C         -23.312672      -63.057213      -17.059383
 C         -22.385809      -62.822594      -14.694899
 C         -23.103228      -63.689465      -15.639167
 H         -23.126808      -61.201519      -18.182325
 H         -24.586714      -61.337120      -17.200270
 H         -21.945904      -60.668159      -14.288636
 H         -23.544626      -61.016552      -14.192519
 H         -22.397018      -63.251114      -17.598658
 H         -24.127382      -63.521286      -17.534889
 H         -22.600208      -63.161385      -13.678677
 H         -21.263561      -63.037220      -14.716817
 H         -22.630466      -64.642387      -15.781488
 H         -24.178007      -63.793766      -15.304894
