20
 generated by VMD
 C         -22.717346      -55.564041      -16.583815
 N         -23.060881      -54.485592      -16.704172
 H         -19.277351      -55.467567      -14.953267
 H         -21.944265      -56.448196      -16.735981
 C         -19.623295      -56.530434      -14.692275
 C         -20.818556      -56.820213      -13.678602
 C         -18.739069      -57.605846      -15.291911
 C         -20.996281      -58.344078      -13.398102
 C         -18.980801      -59.105839      -14.772021
 C         -19.714577      -59.123775      -13.404552
 H         -21.774885      -56.342968      -13.876925
 H         -20.532007      -56.367218      -12.766319
 H         -18.917871      -57.609722      -16.326078
 H         -17.655668      -57.373898      -15.124681
 H         -21.771023      -58.623795      -14.103186
 H         -21.379637      -58.458519      -12.367172
 H         -18.057873      -59.710552      -14.715240
 H         -19.595974      -59.709492      -15.495624
 H         -19.890549      -60.201572      -13.193954
 H         -19.018280      -58.752033      -12.609952
