20
 generated by VMD
 C         -40.060806     -100.890091      -30.972160
 N         -40.393082      -99.942329      -31.518997
 H         -37.547901     -103.241196      -31.243792
 H         -39.691074     -101.736595      -30.494410
 C         -36.841415     -102.329155      -31.273022
 C         -36.245224     -101.589615      -32.558823
 C         -35.995213     -101.969795      -30.061291
 C         -36.182842     -100.029327      -32.452221
 C         -35.808323     -100.332146      -30.077114
 C         -35.158840      -99.828812      -31.353310
 H         -36.866177     -101.970062      -33.384636
 H         -35.258045     -102.009338      -32.643963
 H         -36.432365     -102.241852      -29.091736
 H         -35.034538     -102.547707      -30.116993
 H         -37.295235      -99.794609      -32.245705
 H         -35.860065      -99.550056      -33.367985
 H         -35.296890     -100.065262      -29.175724
 H         -36.880035      -99.871567      -29.939432
 H         -34.859112      -98.767937      -31.385010
 H         -34.224033     -100.321915      -31.468040
