20
 generated by VMD
 C         -50.762573     -129.895554      -46.277637
 N         -50.860516     -130.224579      -45.114635
 H         -48.019680     -131.920319      -44.425148
 H         -50.449562     -129.344330      -47.219284
 C         -47.800526     -131.909439      -43.317055
 C         -48.244915     -133.191986      -42.522892
 C         -48.008385     -130.585632      -42.671516
 C         -47.752968     -133.067459      -41.128422
 C         -47.456440     -130.596817      -41.244274
 C         -48.027824     -131.781067      -40.466614
 H         -47.805340     -134.112000      -43.058693
 H         -49.289825     -133.264252      -42.518715
 H         -47.595051     -129.825958      -43.256119
 H         -49.072903     -130.365906      -42.678173
 H         -46.616623     -133.171127      -41.180927
 H         -48.164463     -133.872986      -40.462093
 H         -47.633976     -129.557480      -40.893539
 H         -46.410301     -130.734360      -41.357468
 H         -47.603848     -131.818237      -39.460155
 H         -49.078445     -131.544678      -40.260231
