20
 generated by VMD
 C         -29.142555      -73.415298      -19.263071
 N         -29.625561      -74.350327      -18.707388
 H         -25.707922      -72.998550      -18.712471
 H         -28.523075      -72.656639      -19.466198
 C         -25.515905      -72.832230      -19.813820
 C         -24.852562      -73.789490      -20.756195
 C         -25.671177      -71.492882      -20.445015
 C         -25.592705      -73.855667      -22.134216
 C         -26.258406      -71.589600      -21.814560
 C         -25.542068      -72.407600      -22.799717
 H         -24.857737      -74.828712      -20.363768
 H         -23.854162      -73.697922      -20.896505
 H         -26.308376      -70.810547      -19.823639
 H         -24.720810      -70.922379      -20.519613
 H         -26.656292      -74.218323      -21.942009
 H         -25.157108      -74.709236      -22.723959
 H         -26.227989      -70.502831      -22.149632
 H         -27.318195      -71.781288      -21.682941
 H         -26.136822      -72.199905      -23.708292
 H         -24.564121      -72.144943      -23.014278
