20
 generated by VMD
 C         -19.501143      -60.868607      -17.480286
 N         -20.023748      -59.852333      -17.721571
 H         -22.532312      -60.303413      -16.362844
 H         -19.108643      -61.715218      -17.110023
 C         -23.003517      -61.239933      -16.352154
 C         -23.440809      -61.919804      -17.648552
 C         -23.493317      -61.845734      -15.094119
 C         -22.867203      -63.260902      -17.497427
 C         -23.260906      -63.415615      -14.978494
 C         -23.443960      -64.111412      -16.372770
 H         -22.879013      -61.274426      -18.393465
 H         -24.546829      -61.731598      -17.930182
 H         -23.092705      -61.192692      -14.194055
 H         -24.604757      -61.655449      -15.033821
 H         -21.788637      -63.216099      -17.411427
 H         -23.026655      -63.769180      -18.408094
 H         -23.816366      -63.916164      -14.187079
 H         -22.204195      -63.459389      -14.751862
 H         -23.064831      -65.159866      -16.251785
 H         -24.546623      -64.226227      -16.607458
