20
 generated by VMD
 C         -70.795059     -181.649857      -64.154640
 N         -70.093987     -182.403244      -63.676109
 H         -68.531677     -180.879593      -61.376743
 H         -71.441757     -180.994446      -64.677444
 C         -67.499252     -180.717941      -60.938423
 C         -66.617043     -181.830612      -60.619301
 C         -67.296890     -179.259262      -60.420708
 C         -65.117104     -181.437561      -60.749458
 C         -65.964333     -178.941345      -60.874302
 C         -64.944633     -179.967545      -60.344254
 H         -66.614517     -182.720932      -61.281971
 H         -66.766701     -182.077255      -59.471142
 H         -68.065689     -178.636322      -60.765640
 H         -67.360756     -179.433411      -59.339024
 H         -64.891479     -181.402420      -61.793816
 H         -64.315201     -182.118332      -60.481556
 H         -65.687775     -177.947296      -60.526089
 H         -66.000000     -178.819626      -61.966347
 H         -63.944923     -179.748047      -60.729927
 H         -64.951805     -179.821701      -59.216927
