20
 generated by VMD
 C         -32.518387      -95.861252      -25.507734
 N         -33.167000      -95.556679      -24.599764
 H         -34.130070      -94.020882      -27.529198
 H         -31.943085      -95.941437      -26.515163
 C         -34.369350      -93.707954      -28.558416
 C         -35.801270      -93.609367      -28.871212
 C         -33.389732      -93.390633      -29.591942
 C         -36.139946      -92.286949      -29.656187
 C         -33.702736      -92.146370      -30.294243
 C         -35.158272      -92.139374      -30.835148
 H         -36.313877      -93.520752      -27.921423
 H         -36.314392      -94.372932      -29.436085
 H         -32.382038      -93.428505      -29.156984
 H         -33.423229      -94.224152      -30.275780
 H         -36.002449      -91.390358      -29.033920
 H         -37.254635      -92.355156      -29.903349
 H         -33.008381      -91.935883      -31.141901
 H         -33.702526      -91.417976      -29.379763
 H         -35.523281      -91.111694      -31.302130
 H         -35.309097      -92.840195      -31.653311
