20
 generated by VMD
 C         -13.496423      -30.656340       -8.334285
 N         -13.416323      -30.065004       -9.297561
 H         -11.158837      -31.572382       -5.674843
 H         -11.298138      -31.873316       -4.038717
 C         -10.990454      -32.367577       -4.938831
 C          -9.553965      -32.841316       -4.939307
 C         -11.960940      -33.427109       -5.259673
 C          -9.512846      -34.058243       -3.983178
 C         -11.909201      -34.632118       -4.299010
 C         -10.488496      -35.173157       -4.371276
 H          -8.892918      -32.083458       -4.553355
 H          -9.131319      -33.096821       -5.943803
 H         -12.987152      -33.049629       -5.180572
 H         -11.934150      -33.834244       -6.270104
 H          -9.754381      -33.730934       -2.972164
 H          -8.476437      -34.386292       -3.991891
 H         -12.728983      -35.378422       -4.624563
 H         -12.174401      -34.338963       -3.301963
 H         -10.461662      -36.032757       -3.645837
 H         -10.185521      -35.629837       -5.291231
