20
 generated by VMD
 C         -12.398453      -27.591362       -4.613729
 N         -13.133389      -28.076202       -5.307210
 H         -10.947334      -30.483795       -2.836088
 H         -11.010340      -28.995384       -3.727432
 C         -10.320811      -29.840954       -3.370593
 C          -9.598048      -30.549074       -4.545498
 C          -9.313290      -29.188320       -2.462877
 C          -8.730968      -29.497458       -5.336238
 C          -8.361140      -28.228899       -3.176438
 C          -7.657570      -28.895203       -4.385670
 H         -10.267642      -31.156696       -5.063248
 H          -8.869608      -31.320265       -4.164831
 H          -9.861516      -28.647736       -1.631569
 H          -8.670227      -29.962683       -2.002688
 H          -9.301862      -28.714180       -5.811847
 H          -8.223495      -29.891968       -6.203006
 H          -7.689580      -27.821609       -2.440708
 H          -8.963908      -27.327787       -3.540083
 H          -7.057695      -28.129749       -4.972591
 H          -6.951961      -29.665680       -4.097785
