20
 generated by VMD
 C         -19.657398      -59.882038      -17.032722
 N         -18.867693      -60.687748      -16.847746
 H         -23.222565      -60.946346      -17.538523
 H         -20.388338      -59.132786      -17.415575
 C         -23.210497      -61.928772      -17.169207
 C         -24.047720      -62.825256      -18.082136
 C         -23.359699      -62.268391      -15.685893
 C         -23.779329      -64.325661      -17.785028
 C         -23.212887      -63.772560      -15.475734
 C         -24.155767      -64.596725      -16.397215
 H         -23.892677      -62.536819      -19.116451
 H         -25.124056      -62.491131      -18.011673
 H         -22.651966      -61.760597      -15.067459
 H         -24.303579      -61.913136      -15.268251
 H         -22.779585      -64.655098      -18.084879
 H         -24.429501      -64.753349      -18.509865
 H         -23.489559      -63.999374      -14.404096
 H         -22.210695      -64.011772      -15.902583
 H         -24.208719      -65.652725      -16.230080
 H         -25.077696      -64.076279      -16.203045
