20
 generated by VMD
 C         -12.964512      -28.707022       -5.886685
 N         -12.775187      -27.734619       -5.361137
 H         -11.393410      -31.269726       -3.550854
 H         -11.252711      -29.710005       -4.431539
 C         -10.727081      -30.496113       -3.903352
 C          -9.840213      -31.204487       -4.872983
 C          -9.959385      -29.886932       -2.707199
 C          -8.677052      -30.329933       -5.341500
 C          -8.743568      -29.061211       -3.166466
 C          -7.861891      -29.795393       -4.114808
 H         -10.455318      -31.441137       -5.712538
 H          -9.328231      -32.092621       -4.421338
 H         -10.582188      -29.154907       -2.174879
 H          -9.642226      -30.633055       -1.963232
 H          -9.152587      -29.491747       -5.845280
 H          -7.993801      -30.932386       -5.917930
 H          -8.176774      -28.809225       -2.297215
 H          -9.171464      -28.110815       -3.603132
 H          -7.006150      -29.170094       -4.499294
 H          -7.518969      -30.732969       -3.654865
