20
 generated by VMD
 C         -67.350250     -192.005081      -67.374718
 N         -67.708214     -192.799072      -66.582222
 H         -69.929924     -189.760742      -65.443130
 H         -67.245171     -191.377472      -68.294907
 C         -70.916916     -189.988937      -65.246712
 C         -71.774040     -190.879562      -66.083389
 C         -71.555672     -189.388519      -63.974129
 C         -72.990868     -191.535019      -65.490356
 C         -73.053101     -189.738449      -63.776203
 C         -73.236053     -191.197052      -63.978611
 H         -71.067970     -191.689041      -66.540154
 H         -72.007454     -190.375870      -67.003075
 H         -71.001480     -189.683121      -62.992401
 H         -71.419884     -188.322556      -63.928909
 H         -72.883682     -192.652359      -65.500496
 H         -73.897247     -191.171539      -65.914902
 H         -73.712593     -189.286301      -64.492920
 H         -73.390007     -189.609283      -62.717182
 H         -72.578339     -191.699142      -63.207561
 H         -74.125984     -191.688828      -63.793488
