20
 generated by VMD
 C         -79.677956     -206.209564      -73.230568
 N         -79.380035     -206.577591      -74.305420
 H         -78.197746     -205.221786      -69.712997
 H         -79.723228     -205.967651      -72.127037
 C         -77.367996     -205.774841      -70.168343
 C         -76.493858     -205.047333      -71.206680
 C         -77.030533     -207.232681      -69.756966
 C         -75.043198     -205.064438      -70.655930
 C         -75.590096     -207.155563      -69.184952
 C         -74.650223     -206.401688      -70.121101
 H         -76.920097     -204.034088      -71.293015
 H         -76.636589     -205.571594      -72.138954
 H         -77.622231     -207.774292      -69.026535
 H         -77.175743     -207.789551      -70.738304
 H         -74.893456     -204.273697      -69.937073
 H         -74.385216     -204.788193      -71.467682
 H         -75.081085     -208.158569      -69.123192
 H         -75.629898     -206.809753      -68.180138
 H         -73.632256     -206.155411      -69.744377
 H         -74.401604     -207.136398      -70.888603
