20
 generated by VMD
 C         -57.254215     -164.008347      -56.692543
 N         -57.258717     -162.947128      -57.262245
 H         -59.693626     -164.907928      -54.592224
 H         -57.103062     -164.954208      -56.211300
 C         -60.806538     -164.893921      -54.624493
 C         -61.731537     -165.335281      -53.540447
 C         -61.410130     -164.445953      -55.922920
 C         -63.101898     -164.580002      -53.428421
 C         -62.853737     -163.800095      -55.779392
 C         -63.733040     -164.635025      -54.860649
 H         -61.123051     -165.327164      -52.595036
 H         -61.897552     -166.398331      -53.712849
 H         -60.702869     -163.672760      -56.255924
 H         -61.539291     -165.218002      -56.783096
 H         -62.825241     -163.543015      -53.175850
 H         -63.753151     -165.077316      -52.678886
 H         -63.323036     -163.798569      -56.748486
 H         -62.813580     -162.692825      -55.410473
 H         -64.697441     -164.237167      -54.789883
 H         -63.757019     -165.655350      -55.119419
