20
 generated by VMD
 C         -79.090874     -208.099396      -75.316971
 N         -78.434311     -207.238129      -75.749680
 H         -79.190239     -210.082520      -73.356384
 H         -79.685280     -208.932388      -75.109962
 C         -78.542259     -210.040726      -72.499084
 C         -77.238663     -209.139465      -72.379051
 C         -78.869881     -211.122940      -71.498909
 C         -77.085144     -208.719711      -70.952858
 C         -78.358360     -210.595169      -70.115982
 C         -77.049995     -209.939224      -69.901497
 H         -77.152206     -208.353760      -73.120506
 H         -76.337646     -209.710342      -72.588646
 H         -79.957138     -211.226547      -71.467628
 H         -78.430984     -212.088837      -71.706642
 H         -77.883087     -208.089584      -70.624359
 H         -76.201363     -208.071198      -70.815002
 H         -78.306122     -211.494705      -69.527695
 H         -79.255608     -210.113663      -69.622780
 H         -77.018829     -209.558212      -68.859535
 H         -76.273392     -210.675797      -69.968231
