20
 generated by VMD
 C         -48.684460     -133.319107      -47.236717
 N         -48.145466     -133.221664      -48.250835
 H         -48.852730     -134.211639      -43.889828
 H         -49.090714     -133.134842      -46.241096
 C         -49.708790     -134.917358      -43.776867
 C         -49.983219     -136.237427      -44.464104
 C         -50.705936     -134.458344      -42.879589
 C         -50.376896     -137.306595      -43.458729
 C         -51.151924     -135.458130      -41.836029
 C         -51.454227     -136.838394      -42.467098
 H         -49.070274     -136.703156      -44.943756
 H         -50.706623     -136.217865      -45.219479
 H         -50.376305     -133.528229      -42.404762
 H         -51.542538     -134.181000      -43.421249
 H         -49.522930     -137.567444      -42.824699
 H         -50.756939     -138.179337      -44.029617
 H         -52.111965     -135.038834      -41.301346
 H         -50.265736     -135.419800      -41.085270
 H         -51.852161     -137.527527      -41.711781
 H         -52.484562     -136.698044      -42.929070
