20
 generated by VMD
 C          -2.046389       -8.655889       -0.744331
 N          -1.919747       -8.082501        0.192506
 H          -3.384061       -9.417425        2.861383
 H          -1.912116      -10.332430        2.929314
 C          -2.953547      -10.459661        3.091943
 C          -3.578108      -11.497699        2.177660
 C          -3.447826      -10.698092        4.571298
 C          -3.393644      -12.900804        2.590260
 C          -3.189749      -12.171609        4.978096
 C          -3.912704      -13.072748        3.999283
 H          -3.172017      -11.409141        1.180810
 H          -4.636028      -11.244570        2.000288
 H          -2.999305      -10.052702        5.272708
 H          -4.509478      -10.507308        4.579757
 H          -2.321052      -13.134061        2.618470
 H          -3.865781      -13.633127        1.929970
 H          -3.686102      -12.189501        5.944919
 H          -2.078198      -12.326720        5.076501
 H          -3.853127      -14.111534        4.362429
 H          -4.994952      -12.824326        3.916810
