20
 generated by VMD
 C         -28.435331      -85.699760      -26.818090
 N         -27.384628      -85.755135      -26.368149
 H         -31.176390      -85.282837      -25.616852
 H         -29.334047      -85.585335      -27.280447
 C         -31.894621      -86.107323      -25.673111
 C         -32.536507      -86.475227      -24.397270
 C         -31.992872      -86.912140      -26.910580
 C         -33.910854      -87.190132      -24.557459
 C         -33.469055      -87.410362      -27.088171
 C         -33.819126      -88.171806      -25.752014
 H         -32.742756      -85.525764      -23.769371
 H         -31.788858      -87.081558      -23.942038
 H         -31.607298      -86.469635      -27.802750
 H         -31.399853      -87.852966      -26.886534
 H         -34.688412      -86.404121      -24.805208
 H         -33.938259      -87.685730      -23.568274
 H         -33.518707      -88.081856      -27.947533
 H         -34.259003      -86.569420      -27.209652
 H         -34.824150      -88.765465      -25.818832
 H         -33.061764      -88.958313      -25.528490
