20
 generated by VMD
 C         -68.906555     -192.878738      -66.325897
 N         -68.111961     -193.405991      -67.030518
 H         -69.955498     -189.948807      -65.544670
 H         -69.536003     -192.513687      -65.506683
 C         -70.872673     -190.543991      -65.311089
 C         -71.781448     -190.830200      -66.494026
 C         -71.509727     -190.720169      -63.905239
 C         -72.621170     -191.978607      -66.232384
 C         -73.040955     -190.658081      -63.987370
 C         -73.634132     -191.601807      -65.114571
 H         -71.234581     -191.089279      -67.312607
 H         -72.437675     -189.907822      -66.644272
 H         -71.268143     -191.701904      -63.647442
 H         -71.221161     -189.938583      -63.148613
 H         -71.963074     -192.817215      -65.999809
 H         -73.192963     -192.362991      -67.130402
 H         -73.304672     -189.626694      -64.314751
 H         -73.561150     -190.875809      -63.110287
 H         -73.899178     -192.591568      -64.543602
 H         -74.460602     -191.278214      -65.574455
