20
 generated by VMD
 C         -11.760737      -41.638241       -6.174653
 N         -10.842194      -41.838833       -6.761130
 H         -14.671353      -41.301525       -8.502740
 H         -15.441504      -40.825871       -9.862191
 C         -15.302958      -41.696377       -9.312316
 C         -16.642353      -42.215771       -8.748401
 C         -14.629945      -42.787521      -10.137350
 C         -17.622501      -42.514858       -9.868425
 C         -15.511716      -43.098061      -11.308792
 C         -16.944143      -43.457676      -10.912842
 H         -17.056000      -41.452152       -8.123973
 H         -16.461924      -43.128910       -8.177090
 H         -13.621844      -42.389759      -10.416229
 H         -14.591205      -43.679565       -9.489609
 H         -17.854702      -41.652802      -10.523637
 H         -18.467028      -43.030952       -9.381508
 H         -15.096015      -43.919029      -11.829148
 H         -15.444571      -42.231712      -12.059878
 H         -17.626362      -43.703526      -11.733153
 H         -16.805866      -44.471928      -10.432034
