20
 generated by VMD
 C         -77.229713     -203.606262      -67.076340
 N         -77.996010     -204.379242      -66.603897
 H         -75.796234     -200.703339      -68.779938
 H         -76.481293     -202.863770      -67.323265
 C         -74.865852     -200.117706      -69.076530
 C         -74.695778     -198.793030      -68.532539
 C         -73.769440     -200.953140      -69.565300
 C         -73.609566     -198.080261      -69.356659
 C         -72.783928     -200.137939      -70.497559
 C         -73.256119     -198.693588      -70.637917
 H         -74.575249     -198.806747      -67.477631
 H         -75.549400     -198.221573      -68.701012
 H         -73.077545     -201.431396      -68.820984
 H         -74.106178     -201.676285      -70.265343
 H         -72.741333     -197.806137      -68.736237
 H         -74.087166     -197.091309      -69.586990
 H         -72.807213     -200.643356      -71.442444
 H         -71.782059     -200.220932      -70.082108
 H         -72.430092     -198.050171      -71.057373
 H         -74.164627     -198.581879      -71.169266
