20
 generated by VMD
 C         -10.579977      -33.362267       -9.497770
 N         -10.911076      -32.554447       -8.810707
 H         -12.021716      -36.045605       -7.933001
 H         -12.446540      -35.696362       -6.285654
 C         -12.527669      -36.477211       -7.054187
 C         -11.786978      -37.654099       -6.448761
 C         -13.978385      -36.729229       -7.298707
 C         -12.587571      -38.180611       -5.206321
 C         -14.698987      -37.150417       -6.038467
 C         -14.060956      -38.417294       -5.420248
 H         -10.786206      -37.452213       -6.102115
 H         -11.665674      -38.503944       -7.152043
 H         -14.417873      -35.858070       -7.718463
 H         -13.987471      -37.566933       -8.041845
 H         -12.375720      -37.455952       -4.406367
 H         -12.037381      -39.113724       -4.808367
 H         -15.711562      -37.364624       -6.309980
 H         -14.644846      -36.376194       -5.257433
 H         -14.590327      -38.485806       -4.494437
 H         -14.226755      -39.316856       -6.040430
