20
 generated by VMD
 C         -57.000805     -163.566528      -56.687569
 N         -57.235180     -162.618347      -57.288830
 H         -59.715942     -164.621506      -54.708164
 H         -56.875404     -164.445755      -56.110909
 C         -60.819061     -164.719131      -54.660362
 C         -61.498318     -165.052444      -53.399540
 C         -61.611229     -164.606491      -55.890102
 C         -62.832355     -164.364655      -53.262623
 C         -62.824768     -163.693939      -55.746517
 C         -63.624115     -164.299194      -54.553368
 H         -60.826290     -164.713440      -52.543648
 H         -61.806870     -166.127121      -53.465405
 H         -61.003353     -164.082123      -56.715717
 H         -62.028770     -165.518021      -56.388649
 H         -62.717289     -163.434937      -52.720089
 H         -63.495209     -164.881256      -52.498695
 H         -63.353001     -163.992172      -56.576614
 H         -62.511715     -162.730484      -55.627594
 H         -64.499458     -163.684952      -54.476185
 H         -64.047279     -165.221954      -54.827602
