20
 generated by VMD
 C         -20.023207      -60.147655      -16.994148
 N         -18.932455      -60.448765      -17.187920
 H         -23.097662      -60.684231      -17.159168
 H         -20.954453      -59.757492      -16.958887
 C         -23.174438      -61.702179      -16.874073
 C         -23.517971      -62.625252      -18.048588
 C         -23.366869      -62.181557      -15.526802
 C         -23.902964      -64.155045      -17.845488
 C         -23.143309      -63.640617      -15.380128
 C         -23.964588      -64.463631      -16.324793
 H         -22.709347      -62.575703      -18.798689
 H         -24.451828      -62.205032      -18.517040
 H         -22.697817      -61.676373      -14.835412
 H         -24.381254      -61.845604      -15.152501
 H         -23.182274      -64.787941      -18.355499
 H         -24.785122      -64.314423      -18.498217
 H         -23.338566      -63.904202      -14.332462
 H         -22.108252      -64.004089      -15.426799
 H         -23.703941      -65.557388      -16.272688
 H         -25.006313      -64.458870      -15.881823
