20
 generated by VMD
 C         -42.401520     -120.560219      -35.080940
 N         -42.517639     -121.193512      -34.140621
 H         -43.561420     -120.393707      -37.797382
 H         -42.466568     -119.792953      -35.775467
 C         -43.957592     -119.581863      -38.382195
 C         -43.080036     -119.101616      -39.461704
 C         -45.221039     -118.930023      -38.091297
 C         -43.926071     -118.978622      -40.746346
 C         -45.987534     -118.595184      -39.375305
 C         -45.140789     -118.034286      -40.500469
 H         -42.304047     -119.801987      -39.714684
 H         -42.524979     -118.245667      -39.293411
 H         -45.965191     -119.488060      -37.528385
 H         -44.967720     -118.048660      -37.464611
 H         -44.217548     -119.971146      -41.111759
 H         -43.214733     -118.704750      -41.521404
 H         -46.894630     -117.848152      -39.340435
 H         -46.489803     -119.475906      -39.812126
 H         -45.690716     -118.029655      -41.478245
 H         -44.855225     -116.937111      -40.366470
