20
 generated by VMD
 C         -20.087738      -61.622467      -16.410540
 N         -19.781279      -61.094154      -17.384743
 H         -21.522390      -64.624725      -17.365229
 H         -20.204412      -62.235897      -15.518031
 C         -22.573174      -64.396751      -17.293085
 C         -23.421127      -63.730423      -18.412834
 C         -23.263262      -64.307922      -15.987514
 C         -24.591261      -64.645790      -18.713055
 C         -24.661850      -65.106491      -16.311998
 C         -25.537155      -64.826286      -17.542929
 H         -22.774149      -63.686104      -19.263199
 H         -23.598803      -62.659603      -18.264202
 H         -22.668697      -64.714890      -15.233007
 H         -23.523760      -63.239929      -15.704877
 H         -24.139036      -65.605957      -18.914402
 H         -25.128675      -64.260925      -19.529472
 H         -25.314600      -64.879189      -15.449895
 H         -24.327635      -66.186478      -16.322840
 H         -26.257042      -65.567535      -17.773397
 H         -26.018713      -63.801563      -17.349041
