20
 generated by VMD
 C          -7.754838      -23.567053        2.034216
 N          -7.634986      -23.234928        3.101287
 H          -9.129132      -23.500584       -1.670349
 H          -9.305696      -22.301327       -3.136959
 C          -8.605174      -22.844954       -2.419696
 C          -7.755797      -23.712120       -3.378708
 C          -7.821817      -21.741415       -1.722206
 C          -6.931870      -22.821423       -4.348572
 C          -7.026145      -20.943415       -2.724687
 C          -6.170034      -21.801237       -3.630266
 H          -8.340219      -24.389677       -4.084606
 H          -7.086062      -24.314665       -2.731793
 H          -8.489510      -21.178064       -1.070317
 H          -7.130321      -22.183805       -1.005905
 H          -7.652625      -22.481129       -5.152058
 H          -6.289828      -23.449474       -4.974450
 H          -6.454085      -20.130243       -2.238827
 H          -7.675584      -20.329782       -3.370940
 H          -5.661150      -21.101719       -4.320403
 H          -5.368690      -22.242819       -3.039169
