20
 generated by VMD
 C         -13.381312      -27.944601       -2.738242
 N         -14.007003      -27.214195       -3.291200
 H         -10.428115      -27.776709       -3.158938
 H          -9.840007      -26.819675       -4.466916
 C          -9.533893      -27.596544       -3.698495
 C          -8.959517      -28.761063       -4.403979
 C          -8.596684      -26.865561       -2.740593
 C          -7.501358      -28.544918       -4.875950
 C          -7.148117      -26.617792       -3.296238
 C          -6.550204      -27.878267       -3.907662
 H          -9.479520      -29.245771       -5.240765
 H          -8.907232      -29.630844       -3.695502
 H          -9.135239      -25.986197       -2.343423
 H          -8.489095      -27.523647       -1.895637
 H          -7.592017      -27.925652       -5.812828
 H          -7.177414      -29.554794       -5.316743
 H          -6.506699      -26.167166       -2.571158
 H          -7.189407      -25.864685       -4.119786
 H          -5.582404      -27.742342       -4.420983
 H          -6.459828      -28.543606       -3.081466
