20
 generated by VMD
 C         -79.518417     -205.401489      -70.968193
 N         -80.621979     -205.614243      -71.082176
 H         -77.150185     -202.887833      -69.610779
 H         -78.454720     -205.216019      -70.728577
 C         -76.064392     -203.073334      -69.686279
 C         -75.383636     -201.923218      -70.385254
 C         -75.301682     -204.381805      -69.421967
 C         -73.880684     -201.913864      -70.390015
 C         -73.875038     -204.189758      -69.038231
 C         -73.208542     -203.355270      -70.073540
 H         -75.855728     -200.973160      -70.001358
 H         -75.746597     -201.965576      -71.401886
 H         -75.871780     -204.821655      -68.589371
 H         -75.454948     -205.260468      -70.108459
 H         -73.476761     -201.220795      -69.667480
 H         -73.518387     -201.651672      -71.346748
 H         -73.268898     -205.062881      -68.972099
 H         -73.798111     -203.685242      -68.020592
 H         -72.145729     -203.150085      -69.933449
 H         -73.190445     -203.970688      -71.003548
