20
 generated by VMD
 C         -30.125233      -89.540123      -25.801054
 N         -29.228928      -90.185371      -25.986179
 H         -32.108086      -91.228882      -26.516943
 H         -31.003386      -88.940460      -25.393351
 C         -32.830704      -90.794449      -27.202520
 C         -34.315178      -91.216393      -27.293419
 C         -32.506485      -89.543350      -27.993038
 C         -35.199665      -90.104950      -26.883318
 C         -33.548107      -88.420837      -27.823162
 C         -34.978928      -88.875900      -27.821049
 H         -34.561852      -92.080009      -26.692389
 H         -34.718815      -91.581467      -28.296217
 H         -31.495171      -89.099701      -27.774759
 H         -32.413631      -89.976929      -29.020710
 H         -35.069962      -89.668945      -25.839294
 H         -36.222107      -90.417244      -27.062941
 H         -33.498543      -87.708031      -28.643621
 H         -33.240299      -87.803421      -26.935631
 H         -35.582401      -88.078239      -27.280830
 H         -35.648762      -88.972275      -28.847828
