20
 generated by VMD
 C         -48.840641     -133.151627      -47.189152
 N         -48.152225     -133.226883      -48.153919
 H         -48.629089     -134.485367      -43.827507
 H         -49.469521     -133.321579      -46.322720
 C         -49.598358     -134.949341      -43.771839
 C         -49.914936     -136.263870      -44.451023
 C         -50.652687     -134.311005      -42.907135
 C         -50.349770     -137.282166      -43.462894
 C         -51.185345     -135.371216      -41.870014
 C         -51.370186     -136.724747      -42.418694
 H         -49.011066     -136.761688      -44.917885
 H         -50.646297     -136.242081      -45.247852
 H         -50.373665     -133.420883      -42.443420
 H         -51.471573     -134.072906      -43.557056
 H         -49.505547     -137.601364      -42.812778
 H         -50.766548     -138.113724      -43.962486
 H         -52.072697     -135.010620      -41.204258
 H         -50.259624     -135.415634      -41.218376
 H         -51.570492     -137.352280      -41.596512
 H         -52.500526     -136.738617      -42.723900
