20
 generated by VMD
 C         -55.501724     -148.861313      -45.347569
 N         -54.862621     -149.254227      -44.496849
 H         -54.639996     -148.276840      -48.866222
 H         -56.252911     -148.554184      -46.063194
 C         -54.314480     -147.228775      -49.048473
 C         -53.177742     -147.082245      -49.990963
 C         -54.936501     -145.972855      -48.570858
 C         -53.380638     -146.068680      -51.042385
 C         -55.196037     -144.919617      -49.646328
 C         -53.928448     -144.814087      -50.470531
 H         -52.795250     -147.959457      -50.538071
 H         -52.256386     -146.944153      -49.329144
 H         -55.741070     -146.233780      -47.971298
 H         -54.167503     -145.554306      -47.959019
 H         -53.971790     -146.469711      -51.858688
 H         -52.354630     -145.862701      -51.393433
 H         -55.444935     -143.907074      -49.265789
 H         -55.965954     -145.198181      -50.299591
 H         -54.224068     -144.072128      -51.212639
 H         -53.109692     -144.406769      -49.889492
