20
 generated by VMD
 C         -80.640808     -205.686203      -71.930679
 N         -79.870041     -206.590637      -71.909187
 H         -77.019020     -204.044464      -71.817184
 H         -81.219734     -204.768738      -72.206116
 C         -76.189613     -204.439285      -71.211380
 C         -74.978935     -203.594620      -71.183281
 C         -76.095940     -205.833481      -70.722885
 C         -74.318047     -203.713593      -69.764427
 C         -75.611504     -205.699768      -69.218925
 C         -74.203362     -205.118317      -69.298294
 H         -75.290962     -202.518478      -71.335068
 H         -74.283623     -203.861725      -71.935257
 H         -77.048431     -206.497742      -70.683182
 H         -75.312416     -206.379242      -71.339005
 H         -74.622658     -203.146896      -68.927231
 H         -73.361107     -203.330750      -69.841095
 H         -75.590431     -206.837860      -68.896835
 H         -76.246658     -205.167404      -68.515076
 H         -73.661377     -205.149414      -68.319176
 H         -73.524803     -205.576096      -69.978569
