20
 generated by VMD
 C         -58.238510     -161.855621      -56.334805
 N         -57.208981     -161.931702      -56.770798
 H         -59.385155     -164.843674      -55.362396
 H         -59.182484     -161.839188      -55.862103
 C         -60.338825     -164.457825      -54.847656
 C         -60.352894     -163.965149      -53.458061
 C         -61.636700     -164.442169      -55.675842
 C         -61.465870     -162.863785      -53.085220
 C         -62.846226     -163.451889      -55.224243
 C         -62.843990     -163.236969      -53.600105
 H         -59.434093     -163.444763      -53.168114
 H         -60.529560     -164.834000      -52.718761
 H         -61.485809     -164.237000      -56.690018
 H         -62.016003     -165.504456      -55.566093
 H         -61.081749     -161.837921      -53.468712
 H         -61.535393     -162.879501      -52.008904
 H         -63.790356     -163.858337      -55.566078
 H         -62.699265     -162.366791      -55.629509
 H         -63.699379     -162.522522      -53.260071
 H         -63.114704     -164.258896      -53.178955
