20
 generated by VMD
 C         -62.866600     -174.816589      -54.506409
 N         -63.109753     -174.296555      -55.542862
 H         -63.663479     -173.289841      -58.105545
 H         -62.521111     -175.362411      -53.643074
 C         -63.713825     -172.225510      -58.524879
 C         -63.986366     -171.109650      -57.597008
 C         -64.441826     -172.073563      -59.825401
 C         -63.896278     -169.690414      -58.270729
 C         -64.224754     -170.768906      -60.458176
 C         -64.556068     -169.451752      -59.658379
 H         -63.258541     -171.147522      -56.604668
 H         -64.948380     -171.241501      -57.251568
 H         -64.053917     -172.953491      -60.402843
 H         -65.557579     -172.208313      -59.480980
 H         -62.787388     -169.377762      -58.349739
 H         -64.470673     -168.982925      -57.550171
 H         -64.833412     -170.727997      -61.323540
 H         -63.243378     -170.628372      -60.904388
 H         -64.247810     -168.505554      -60.156479
 H         -65.667542     -169.474091      -59.481525
