20
 generated by VMD
 C         -59.340023     -168.404495      -55.493961
 N         -58.599613     -168.860962      -54.763927
 H         -62.043873     -169.280838      -55.863926
 H         -60.090572     -167.900848      -56.079422
 C         -62.661110     -168.502197      -56.334202
 C         -62.772980     -168.468277      -57.884811
 C         -62.885906     -167.266861      -55.598743
 C         -63.914246     -167.502518      -58.326664
 C         -64.093361     -166.494522      -56.115284
 C         -64.091751     -166.281540      -57.565075
 H         -62.956295     -169.599869      -58.192764
 H         -61.881599     -168.125183      -58.209282
 H         -63.167900     -167.433594      -54.549904
 H         -62.055161     -166.573441      -55.480118
 H         -64.745293     -168.180740      -58.097080
 H         -63.827198     -167.322174      -59.406887
 H         -64.130264     -165.462784      -55.713516
 H         -64.946136     -167.183670      -55.882114
 H         -64.989273     -165.730881      -57.944519
 H         -63.185780     -165.587891      -57.752533
