20
 generated by VMD
 C         -57.932632     -150.631760      -48.703972
 N         -58.006882     -151.779953      -48.617374
 H         -55.216145     -149.583679      -47.557896
 H         -57.821651     -149.586395      -48.711975
 C         -54.995201     -149.247818      -48.556919
 C         -54.248081     -150.209183      -49.425240
 C         -54.947948     -147.766205      -48.882420
 C         -54.135204     -149.741669      -50.910805
 C         -55.031425     -147.414780      -50.378788
 C         -53.997044     -148.221024      -51.151989
 H         -54.589603     -151.271423      -49.362495
 H         -53.215107     -150.269012      -48.981400
 H         -55.795692     -147.299454      -48.451817
 H         -54.116844     -147.160446      -48.402859
 H         -55.116081     -150.000595      -51.346920
 H         -53.413704     -150.442673      -51.410923
 H         -54.845776     -146.382904      -50.523037
 H         -55.970612     -147.645004      -50.996372
 H         -53.997295     -147.914551      -52.208305
 H         -53.038307     -147.859329      -50.668800
