20
 generated by VMD
 C         -56.638447     -149.971634      -47.759220
 N         -57.624554     -150.458710      -48.227989
 H         -53.501465     -148.458008      -47.396252
 H         -55.716259     -149.617767      -47.249439
 C         -53.875465     -148.304291      -48.357075
 C         -53.268314     -148.849258      -49.572464
 C         -54.613605     -147.035172      -48.562180
 C         -54.169949     -148.962494      -50.765652
 C         -55.625500     -147.104462      -49.802402
 C         -54.869400     -147.578171      -51.020786
 H         -52.680157     -149.756500      -49.409054
 H         -52.499981     -148.071930      -49.654888
 H         -55.176136     -146.870224      -47.633381
 H         -54.013638     -146.218536      -48.713058
 H         -54.860142     -149.823181      -50.725826
 H         -53.621250     -149.198166      -51.697350
 H         -56.048985     -146.066772      -50.008167
 H         -56.393566     -147.683136      -49.477005
 H         -55.447903     -147.407761      -51.954525
 H         -54.091984     -146.861374      -51.074661
