20
 generated by VMD
 C          -1.521237      -10.720954        0.755934
 N          -0.840551      -10.579946        1.666588
 H          -3.764140      -12.931497        0.223456
 H          -4.959323      -12.493952        1.382968
 C          -4.416015      -13.345365        1.008917
 C          -3.608175      -13.904049        2.167406
 C          -5.479007      -14.252680        0.437580
 C          -4.447206      -14.541476        3.209703
 C          -6.286063      -14.945330        1.567266
 C          -5.367959      -15.577597        2.674766
 H          -2.937273      -13.167349        2.569877
 H          -2.972237      -14.741194        1.794602
 H          -6.115054      -13.656196       -0.303029
 H          -4.914127      -15.060273       -0.177736
 H          -4.966344      -13.749887        3.795569
 H          -3.709778      -14.925986        3.912995
 H          -7.003971      -15.614717        1.147394
 H          -6.937481      -14.184421        2.024869
 H          -6.068562      -15.832611        3.518506
 H          -4.971313      -16.547848        2.331184
