20
 generated by VMD
 C         -20.519573      -61.587105      -17.320360
 N         -19.422359      -61.187794      -17.050810
 H         -21.653824      -65.178291      -16.668087
 H         -21.482161      -61.880630      -17.325722
 C         -22.681688      -65.056252      -16.990864
 C         -23.075092      -64.322121      -18.216051
 C         -23.804539      -65.323875      -16.000608
 C         -24.505749      -64.692284      -18.869671
 C         -25.154079      -65.379669      -16.643452
 C         -25.580696      -64.468025      -17.792130
 H         -22.256596      -64.209221      -18.919714
 H         -23.162239      -63.297920      -17.884432
 H         -23.435745      -66.230362      -15.541063
 H         -23.816057      -64.502785      -15.318871
 H         -24.462093      -65.717407      -19.109625
 H         -24.592859      -63.990479      -19.714342
 H         -25.927490      -65.309380      -15.909505
 H         -25.163855      -66.385185      -17.069538
 H         -26.489265      -64.871536      -18.257221
 H         -25.605556      -63.438263      -17.475500
