20
 generated by VMD
 C         -50.071949     -130.746017      -45.688313
 N         -50.821701     -129.924591      -45.638126
 H         -47.309433     -132.260178      -44.217255
 H         -49.155273     -131.257721      -45.497746
 C         -48.178410     -132.227356      -43.560707
 C         -48.537598     -133.410507      -42.777195
 C         -48.408230     -130.950012      -42.841042
 C         -47.911003     -133.546585      -41.358280
 C         -47.775455     -130.967712      -41.378052
 C         -48.290943     -132.210022      -40.616333
 H         -48.120747     -134.313705      -43.400581
 H         -49.601082     -133.511780      -42.878826
 H         -48.082714     -130.050766      -43.352131
 H         -49.563080     -130.807007      -42.636311
 H         -46.795643     -133.712708      -41.395588
 H         -48.405544     -134.493500      -40.990692
 H         -48.237343     -129.991974      -40.933708
 H         -46.725292     -130.879227      -41.494316
 H         -47.945969     -132.234970      -39.618538
 H         -49.424755     -132.257492      -40.451767
