20
 generated by VMD
 C         -24.757139      -70.147171      -16.390930
 N         -24.805592      -70.821716      -15.430431
 H         -23.678234      -67.827713      -19.081669
 H         -24.768723      -69.607452      -17.299292
 C         -24.372259      -68.447472      -19.613626
 C         -23.939272      -69.021477      -20.870220
 C         -25.801634      -67.964760      -19.563112
 C         -24.717119      -70.145523      -21.406271
 C         -26.710896      -69.065247      -20.140448
 C         -26.095093      -69.637665      -21.427580
 H         -22.906166      -69.525894      -20.971626
 H         -23.848289      -68.206306      -21.550520
 H         -25.891571      -67.703079      -18.460125
 H         -25.995430      -66.949661      -20.111446
 H         -24.653688      -71.033028      -20.756712
 H         -24.516506      -70.455925      -22.449173
 H         -27.731991      -68.684998      -20.254066
 H         -26.742060      -69.700912      -19.273594
 H         -26.741993      -70.365097      -21.968004
 H         -26.139355      -68.767654      -22.168009
