20
 generated by VMD
 C         -62.265213     -172.360504      -54.910595
 N         -61.278400     -172.936432      -55.287598
 H         -61.737057     -170.771576      -58.539997
 H         -63.106590     -171.694061      -54.770588
 C         -62.623962     -170.224716      -58.187138
 C         -62.373291     -168.788651      -57.974064
 C         -63.934010     -170.941147      -58.099674
 C         -63.561680     -167.995209      -58.480160
 C         -65.065384     -170.052704      -58.641628
 C         -64.891052     -168.611771      -58.047913
 H         -61.513248     -168.428329      -58.372246
 H         -62.274220     -168.650208      -56.792274
 H         -63.925362     -171.865692      -58.654987
 H         -64.108917     -171.186752      -57.110802
 H         -63.481670     -167.854752      -59.600529
 H         -63.324520     -166.955200      -58.119259
 H         -66.129280     -170.365738      -58.499378
 H         -65.004250     -169.898956      -59.809570
 H         -65.727570     -168.086899      -58.437626
 H         -64.952782     -168.574844      -56.952183
