20
 generated by VMD
 C         -48.427765     -135.647217      -46.343925
 N         -47.311882     -135.496063      -46.104797
 H         -51.503826     -134.784409      -45.497692
 H         -49.465614     -135.727982      -46.180367
 C         -51.753666     -135.670975      -45.064865
 C         -52.308510     -137.003052      -45.552155
 C         -51.277855     -135.531311      -43.612942
 C         -51.485832     -138.153793      -44.987659
 C         -50.502735     -136.739502      -43.133713
 C         -51.184864     -138.077301      -43.476032
 H         -52.408787     -137.120819      -46.593807
 H         -53.334515     -137.167389      -45.093872
 H         -50.585098     -134.692993      -43.702858
 H         -52.100189     -135.208282      -43.069626
 H         -50.466461     -138.236374      -45.428368
 H         -52.074524     -139.084686      -45.159290
 H         -50.386299     -136.623581      -42.046028
 H         -49.414494     -136.700104      -43.548580
 H         -50.682404     -138.945938      -43.089096
 H         -52.292339     -138.179153      -42.844349
