20
 generated by VMD
 C         -49.674503     -127.749130      -40.202274
 N         -50.582214     -127.748978      -40.912014
 H         -47.292965     -127.544189      -42.144581
 H         -48.684380     -127.696396      -39.789146
 C         -46.744049     -126.816162      -41.463558
 C         -45.860783     -127.231201      -40.322014
 C         -46.826908     -125.290649      -41.515499
 C         -44.398926     -126.719765      -40.537685
 C         -45.456745     -124.645935      -41.818024
 C         -44.454571     -125.211403      -40.747375
 H         -45.821808     -128.352768      -40.155060
 H         -46.168316     -126.807220      -39.380421
 H         -47.601532     -124.907684      -42.152317
 H         -47.358143     -124.861801      -40.502319
 H         -43.828709     -127.408310      -41.165329
 H         -43.889412     -126.805794      -39.588142
 H         -45.397259     -123.559746      -41.684113
 H         -45.146931     -124.927597      -42.791950
 H         -43.365723     -124.906990      -40.905426
 H         -44.817429     -124.724762      -39.784431
