20
 generated by VMD
 C         -68.536713     -184.990158      -66.014709
 N         -69.549606     -185.557419      -66.036278
 H         -69.824425     -182.820145      -63.441063
 H         -67.611206     -184.512939      -66.004578
 C         -69.328102     -183.559265      -62.850861
 C         -70.032104     -184.881912      -62.652332
 C         -67.828445     -183.669739      -62.522541
 C         -69.196754     -185.947449      -62.013599
 C         -67.487976     -184.161743      -61.115673
 C         -68.396660     -185.383713      -60.787598
 H         -70.329475     -185.308945      -63.618717
 H         -70.949257     -184.814545      -62.109150
 H         -67.375374     -184.247192      -63.283787
 H         -67.402153     -182.692352      -62.673161
 H         -68.380409     -186.216248      -62.732445
 H         -69.721535     -186.916855      -61.714165
 H         -67.601639     -183.448608      -60.304932
 H         -66.410034     -184.459000      -61.094021
 H         -67.753220     -186.291443      -60.549469
 H         -69.012207     -185.226898      -59.755058
