20
 generated by VMD
 C         -39.985287      -99.473450      -28.705254
 N         -39.198647     -100.058197      -28.099277
 H         -37.453789      -98.976250      -30.434908
 H         -40.658604      -99.043938      -29.346832
 C         -36.522503      -98.426796      -30.765760
 C         -35.856033      -98.781601      -32.039852
 C         -35.462479      -98.129662      -29.632492
 C         -34.542919      -97.884529      -32.421001
 C         -34.256283      -97.203781      -29.956635
 C         -33.608494      -97.717041      -31.188431
 H         -36.633335      -98.524506      -32.874645
 H         -35.735035      -99.856499      -32.091953
 H         -36.003582      -97.857018      -28.641390
 H         -34.922222      -99.019745      -29.316872
 H         -34.884548      -96.925758      -32.769375
 H         -34.158794      -98.308220      -33.433052
 H         -33.557522      -97.202225      -29.025839
 H         -34.549183      -96.200310      -30.249353
 H         -32.802032      -97.055237      -31.423126
 H         -33.097504      -98.711853      -31.100874
