20
 generated by VMD
 C         -18.467001      -50.043789       -9.663822
 N         -19.445351      -50.566460       -9.480165
 H         -16.303694      -47.190208      -10.137621
 H         -17.489227      -48.662579      -10.192267
 C         -16.752508      -47.857727      -10.909578
 C         -15.647186      -48.785294      -11.519741
 C         -17.620682      -47.067581      -11.903010
 C         -16.408110      -49.692986      -12.475852
 C         -17.954887      -47.836639      -13.159125
 C         -16.903278      -48.851120      -13.597766
 H         -15.194699      -49.384109      -10.650014
 H         -14.907481      -48.162422      -12.011084
 H         -18.475719      -46.630466      -11.405478
 H         -16.942150      -46.258900      -12.176311
 H         -17.273888      -50.190502      -11.978637
 H         -15.716861      -50.402157      -12.944408
 H         -18.225737      -47.068016      -13.956003
 H         -18.788452      -48.403881      -12.911541
 H         -17.244427      -49.561848      -14.411251
 H         -16.063547      -48.237606      -14.106483
