20
 generated by VMD
 C          -9.353586      -24.799818        0.799236
 N         -10.073555      -25.392826        1.425729
 H          -6.765907      -23.178633       -0.702552
 H          -8.254518      -22.654518       -1.421618
 C          -7.283812      -22.999092       -1.625910
 C          -7.360431      -24.330929       -2.397739
 C          -6.411864      -22.081093       -2.438068
 C          -8.076828      -24.222948       -3.695292
 C          -7.110455      -21.889877       -3.876147
 C          -7.337838      -23.252169       -4.574121
 H          -7.909891      -25.132084       -1.743838
 H          -6.343322      -24.731440       -2.372920
 H          -6.419432      -21.092213       -1.924509
 H          -5.377663      -22.389454       -2.592160
 H          -9.128447      -24.030033       -3.556502
 H          -8.124633      -25.181864       -4.185067
 H          -6.481382      -21.238398       -4.468591
 H          -8.089587      -21.410091       -3.794847
 H          -7.950396      -23.038399       -5.487828
 H          -6.370604      -23.744511       -4.817548
