20
 generated by VMD
 C         -67.362251     -192.006912      -67.388313
 N         -67.654488     -192.781555      -66.585274
 H         -69.859253     -189.776154      -65.543060
 H         -67.281548     -191.324234      -68.184753
 C         -70.945198     -189.977600      -65.251518
 C         -71.773575     -190.915710      -66.084885
 C         -71.569824     -189.348892      -63.969025
 C         -72.988976     -191.511185      -65.455246
 C         -73.026360     -189.740128      -63.743511
 C         -73.212463     -191.194534      -63.994881
 H         -71.131805     -191.694122      -66.385437
 H         -72.133919     -190.321747      -66.968971
 H         -71.082649     -189.708389      -63.061916
 H         -71.423119     -188.222214      -63.908970
 H         -72.933014     -192.579620      -65.553749
 H         -73.871185     -191.103256      -66.045898
 H         -73.584145     -189.145966      -64.525764
 H         -73.370621     -189.566925      -62.746468
 H         -72.664848     -191.747284      -63.272984
 H         -74.230888     -191.711472      -63.608540
