20
 generated by VMD
 C         -58.311207     -159.039963      -57.999313
 N         -59.317253     -158.887558      -57.364071
 H         -59.538467     -159.826920      -54.338943
 H         -57.434334     -159.216675      -58.634075
 C         -59.489906     -160.794235      -53.859768
 C         -58.633366     -160.910812      -52.680595
 C         -60.691807     -161.738846      -54.001266
 C         -59.286121     -161.121490      -51.381481
 C         -61.456837     -161.643890      -52.734627
 C         -60.474422     -162.148941      -51.571552
 H         -57.903946     -160.179688      -52.510258
 H         -57.900787     -161.726730      -52.960636
 H         -61.426544     -161.388168      -54.833717
 H         -60.222679     -162.693420      -54.301033
 H         -59.779251     -160.139999      -51.098232
 H         -58.600792     -161.656982      -50.663345
 H         -62.216343     -162.399628      -52.831303
 H         -61.891148     -160.656494      -52.487331
 H         -61.087799     -162.258881      -50.752018
 H         -60.142311     -163.115128      -51.935711
