20
 generated by VMD
 C         -12.029139      -39.562321       -6.735038
 N         -10.949759      -39.374359       -6.815219
 H         -12.915381      -40.935047       -8.949640
 H         -14.197476      -39.928040       -8.761087
 C         -14.007431      -40.952263       -9.056346
 C         -14.673706      -41.880814       -8.002730
 C         -14.569238      -41.210556      -10.482823
 C         -16.174381      -41.680473       -8.098878
 C         -16.098440      -41.285702      -10.585128
 C         -16.677387      -42.191715       -9.434939
 H         -14.203710      -41.736568       -7.032101
 H         -14.445601      -42.905182       -8.193809
 H         -14.196022      -40.423901      -11.200431
 H         -14.153462      -42.133533      -10.830523
 H         -16.486622      -40.626904       -8.004906
 H         -16.694565      -42.103981       -7.242322
 H         -16.448809      -41.648815      -11.521762
 H         -16.571737      -40.281479      -10.389711
 H         -17.808046      -42.104927       -9.436304
 H         -16.303345      -43.213654       -9.646473
