20
 generated by VMD
 C         -38.464848     -111.435303      -36.098564
 N         -38.407528     -110.704880      -37.025089
 H         -40.438229     -114.609406      -34.938122
 H         -38.502068     -112.247948      -35.433662
 C         -41.520756     -114.273071      -35.210957
 C         -41.838615     -114.532639      -36.646420
 C         -42.251366     -113.377373      -34.352104
 C         -43.343792     -114.252609      -36.947701
 C         -43.687439     -113.167465      -34.741886
 C         -43.690025     -112.924507      -36.195084
 H         -41.652931     -115.517937      -36.982300
 H         -41.132828     -113.959923      -37.261806
 H         -42.337444     -113.741249      -33.295372
 H         -41.728996     -112.408997      -34.215694
 H         -43.862808     -115.075958      -36.537983
 H         -43.656246     -114.177475      -38.020130
 H         -44.121334     -112.353218      -34.029877
 H         -44.281921     -114.073593      -34.400215
 H         -44.760147     -112.692398      -36.552109
 H         -43.023552     -112.225105      -36.703903
