20
 generated by VMD
 C         -27.979738      -82.535286      -27.128357
 N         -27.203711      -83.356819      -26.764492
 H         -31.382990      -84.252701      -26.608074
 H         -28.653038      -81.844772      -27.482895
 C         -31.727207      -84.945198      -25.774778
 C         -31.394323      -84.773926      -24.355463
 C         -32.280869      -86.210907      -26.296038
 C         -32.393040      -85.490166      -23.473658
 C         -33.210064      -86.906303      -25.273598
 C         -32.605270      -86.987190      -23.897425
 H         -31.240217      -83.818825      -24.008600
 H         -30.382267      -85.186485      -24.223814
 H         -32.767120      -85.948418      -27.251154
 H         -31.481575      -86.936501      -26.463579
 H         -33.330574      -84.947929      -23.554333
 H         -32.071415      -85.553627      -22.411482
 H         -33.360168      -88.009560      -25.661592
 H         -34.177563      -86.395538      -25.345718
 H         -33.237171      -87.349297      -23.099413
 H         -31.593979      -87.514030      -23.750013
