20
 generated by VMD
 C         -12.864628      -28.051559       -4.069222
 N         -13.855122      -27.638666       -4.359705
 H         -10.470804      -29.299191       -2.496873
 H         -10.390035      -27.769899       -3.562575
 C          -9.839369      -28.708767       -3.192486
 C          -9.405825      -29.564495       -4.402037
 C          -8.680011      -28.133587       -2.423691
 C          -8.276667      -28.880869       -5.203415
 C          -7.610209      -27.494795       -3.253390
 C          -7.153341      -28.436008       -4.311068
 H         -10.303278      -29.853495       -5.010440
 H          -9.018998      -30.509497       -4.115220
 H          -9.080333      -27.370481       -1.679673
 H          -8.129663      -28.939243       -1.897062
 H          -8.627906      -28.033318       -5.740977
 H          -7.914363      -29.508619       -6.025204
 H          -6.781975      -27.127481       -2.623715
 H          -8.046506      -26.601303       -3.687711
 H          -6.361067      -28.009995       -4.975211
 H          -6.698750      -29.343552       -3.858517
