20
 generated by VMD
 C         -33.650028      -96.104027      -25.389252
 N         -33.990788      -96.894745      -26.158781
 H         -34.944168      -94.367821      -27.350466
 H         -33.292969      -95.402817      -24.707039
 C         -34.841137      -94.012566      -28.341469
 C         -35.882706      -94.450310      -29.273195
 C         -33.604210      -93.680183      -29.053793
 C         -36.164886      -93.544243      -30.465412
 C         -33.778809      -92.816078      -30.330128
 C         -34.822235      -93.353477      -31.297499
 H         -36.837265      -94.485260      -28.726870
 H         -35.646515      -95.543533      -29.516325
 H         -32.766861      -93.212151      -28.435347
 H         -33.153435      -94.689491      -29.343452
 H         -36.583462      -92.614075      -30.096710
 H         -36.860699      -94.065079      -31.209318
 H         -32.824024      -92.671570      -30.778955
 H         -34.245094      -91.825356      -30.090528
 H         -34.870556      -92.811996      -32.197468
 H         -34.404446      -94.566742      -31.544851
