20
 generated by VMD
 C         -28.152617      -82.366364      -26.805117
 N         -27.337326      -83.197266      -26.980341
 H         -31.168850      -84.135971      -26.667107
 H         -28.943541      -81.677322      -26.800282
 C         -31.636896      -84.800865      -25.829487
 C         -31.233305      -84.603653      -24.371508
 C         -32.186447      -86.113762      -26.180315
 C         -32.100418      -85.287247      -23.377417
 C         -33.108734      -86.727226      -25.186710
 C         -32.570450      -86.770348      -23.779768
 H         -31.065609      -83.579498      -24.111874
 H         -30.264149      -85.163414      -24.412041
 H         -32.487499      -86.171165      -27.228394
 H         -31.410717      -86.869698      -26.129839
 H         -32.941864      -84.709999      -23.170221
 H         -31.597553      -85.377144      -22.413643
 H         -33.266319      -87.863579      -25.395418
 H         -34.105732      -86.248611      -25.183039
 H         -33.322826      -86.953766      -23.053144
 H         -31.724621      -87.579277      -23.582712
