20
 generated by VMD
 C         -52.496479     -146.427307      -44.220318
 N         -51.700356     -146.548111      -45.107567
 H         -53.738640     -146.070602      -47.289440
 H         -53.149757     -146.284897      -43.309486
 C         -53.956306     -145.159912      -47.861485
 C         -52.884972     -144.938339      -48.824390
 C         -54.736027     -143.903366      -47.593464
 C         -53.487076     -144.335526      -50.111614
 C         -55.396233     -143.284637      -48.874290
 C         -54.236958     -143.037308      -49.876320
 H         -52.454258     -145.949799      -48.929718
 H         -52.181011     -144.365753      -48.368359
 H         -55.490658     -144.018906      -46.767120
 H         -54.127460     -143.022522      -47.099167
 H         -53.978706     -145.064529      -50.716362
 H         -52.634937     -144.158371      -50.743843
 H         -56.098694     -142.482437      -48.649658
 H         -56.082893     -143.978836      -49.359982
 H         -54.698769     -142.713547      -50.749420
 H         -53.519650     -142.358963      -49.411816
