20
 generated by VMD
 C         -21.646622      -65.809402      -16.847752
 N         -20.978905      -66.490974      -16.187532
 H         -24.214659      -63.938091      -18.204609
 H         -22.268204      -65.466255      -17.804075
 C         -24.412380      -64.997200      -18.378006
 C         -24.313761      -65.430252      -19.893255
 C         -25.397652      -65.745621      -17.564793
 C         -24.494757      -66.928696      -20.100082
 C         -25.285864      -67.233696      -17.648106
 C         -25.224407      -67.778664      -19.050219
 H         -23.358084      -65.027206      -20.210520
 H         -25.016783      -64.866844      -20.518927
 H         -25.239981      -65.425140      -16.529179
 H         -26.424570      -65.418373      -17.684696
 H         -23.528666      -67.419449      -20.270132
 H         -24.974566      -66.927933      -21.110180
 H         -26.044249      -67.768013      -17.072462
 H         -24.394882      -67.337288      -17.007872
 H         -24.668436      -68.704453      -19.023554
 H         -26.223642      -68.105103      -19.450672
