20
 generated by VMD
 C         -58.401276     -160.129684      -57.023663
 N         -58.631317     -159.860809      -58.076065
 H         -58.789570     -162.848816      -54.728687
 H         -58.265995     -160.355225      -55.998814
 C         -59.663074     -163.142731      -54.198063
 C         -59.480579     -163.097351      -52.684635
 C         -61.054306     -163.192505      -54.779301
 C         -60.304955     -162.041229      -52.034832
 C         -61.890636     -162.245697      -53.987896
 C         -61.778225     -162.265900      -52.465904
 H         -58.412777     -163.038956      -52.454994
 H         -59.658215     -164.143112      -52.223450
 H         -61.074970     -162.976151      -55.864017
 H         -61.452961     -164.189102      -54.754356
 H         -59.886261     -160.987701      -52.409939
 H         -60.151474     -162.162643      -50.945641
 H         -62.960548     -162.430222      -54.272709
 H         -61.622684     -161.139618      -54.242916
 H         -62.385941     -161.483536      -51.996639
 H         -62.184635     -163.229233      -51.982357
