20
 generated by VMD
 C         -67.565712     -179.584946      -58.486187
 N         -68.493752     -180.229797      -58.300819
 H         -66.963371     -176.465439      -59.824928
 H         -66.686020     -178.971436      -58.748413
 C         -65.991447     -175.990829      -60.011940
 C         -66.023376     -175.096512      -61.229683
 C         -64.733391     -176.501617      -59.448769
 C         -65.037758     -173.954865      -60.967354
 C         -63.647060     -175.467804      -59.316612
 C         -63.647003     -174.580170      -60.609562
 H         -67.022606     -174.718994      -61.423958
 H         -65.661781     -175.801743      -61.986423
 H         -65.027382     -176.886719      -58.381012
 H         -64.455223     -177.374298      -60.075451
 H         -65.355774     -173.473053      -60.087723
 H         -64.919922     -173.271027      -61.833858
 H         -62.778572     -176.071625      -59.353405
 H         -63.595200     -174.899445      -58.360718
 H         -63.035431     -173.668167      -60.441345
 H         -63.113697     -175.082748      -61.380569
