20
 generated by VMD
 C         -45.249565     -123.056732      -35.448196
 N         -45.702950     -124.107285      -35.200947
 H         -44.909943     -122.258568      -38.245037
 H         -44.713398     -122.174431      -35.497612
 C         -44.775135     -121.634796      -39.061287
 C         -43.423550     -121.389038      -39.627388
 C         -45.993263     -120.803963      -39.561031
 C         -43.441666     -120.824203      -41.066963
 C         -45.756821     -120.123665      -40.928154
 C         -44.364471     -119.616982      -41.192436
 H         -42.908447     -122.354713      -39.465130
 H         -42.854671     -120.732895      -38.993969
 H         -46.969002     -121.360283      -39.606956
 H         -46.149784     -119.834335      -38.869678
 H         -43.624985     -121.575546      -41.767406
 H         -42.436619     -120.491074      -41.397339
 H         -46.335449     -119.298683      -41.051746
 H         -45.919613     -120.971504      -41.571915
 H         -44.210884     -119.243690      -42.236683
 H         -43.987617     -118.822800      -40.497581
