20
 generated by VMD
 C         -19.939644      -57.424042      -16.881788
 N         -19.196363      -57.814507      -17.641520
 H         -22.665844      -59.395950      -16.801720
 H         -20.472286      -57.074947      -15.882586
 C         -22.621126      -60.383568      -16.544582
 C         -23.866283      -61.161083      -16.397783
 C         -21.348301      -60.877998      -15.874041
 C         -23.853123      -62.553562      -15.688663
 C         -21.297800      -62.255795      -15.223171
 C         -22.690508      -62.750729      -14.771480
 H         -24.133953      -61.437687      -17.482929
 H         -24.659016      -60.488213      -15.991937
 H         -20.519798      -60.746849      -16.601603
 H         -21.018286      -60.208328      -15.051745
 H         -23.824350      -63.333469      -16.509958
 H         -24.828133      -62.820023      -15.167400
 H         -20.768316      -62.003563      -14.235249
 H         -20.738192      -63.013008      -15.829519
 H         -22.463505      -63.775883      -14.360545
 H         -22.915163      -62.111370      -13.913754
