20
 generated by VMD
 C         -12.385159      -27.301107       -2.648075
 N         -13.430387      -27.596041       -2.435419
 H         -10.616961      -27.204884       -3.869507
 H          -9.596444      -26.393997       -5.124144
 C          -9.558210      -27.012068       -4.189107
 C          -9.015474      -28.425787       -4.480258
 C          -8.801194      -26.304686       -3.028308
 C          -7.475320      -28.387106       -4.656774
 C          -7.267337      -26.306545       -3.189455
 C          -6.736307      -27.708319       -3.459864
 H          -9.473070      -28.659227       -5.521119
 H          -9.203324      -29.163631       -3.742413
 H          -9.101403      -25.228830       -2.936952
 H          -9.076762      -26.773355       -2.066302
 H          -7.246886      -27.869820       -5.559336
 H          -7.202631      -29.440826       -4.632362
 H          -6.861773      -26.023390       -2.208364
 H          -7.015290      -25.537291       -3.955922
 H          -5.668020      -27.659399       -3.802382
 H          -6.750322      -28.343658       -2.583712
