20
 generated by VMD
 C         -53.988903     -147.983475      -45.454987
 N         -54.538300     -148.044724      -44.461246
 H         -54.393665     -147.977844      -48.559788
 H         -53.409588     -147.767242      -46.359486
 C         -54.441822     -146.938782      -48.984135
 C         -53.157215     -146.695938      -49.901783
 C         -55.107647     -145.824966      -48.267982
 C         -53.370541     -145.426041      -50.742153
 C         -55.156754     -144.477829      -49.201794
 C         -53.762207     -144.195618      -49.884689
 H         -53.282574     -147.502579      -50.599434
 H         -52.138023     -146.781555      -49.475224
 H         -56.151047     -146.018280      -47.904121
 H         -54.473316     -145.497269      -47.372375
 H         -54.248169     -145.524002      -51.386887
 H         -52.578522     -145.102890      -51.454266
 H         -55.523006     -143.631332      -48.608612
 H         -55.940578     -144.823395      -49.995529
 H         -53.651165     -143.268402      -50.547035
 H         -53.081142     -143.850006      -49.069778
