20
 generated by VMD
 C         -38.176155     -110.128235      -36.159405
 N         -37.577431     -109.119675      -36.204536
 H         -40.169086     -113.124031      -36.467960
 H         -38.633102     -111.150200      -36.232735
 C         -41.133404     -113.135132      -36.054157
 C         -42.268276     -113.848221      -36.594383
 C         -41.512798     -112.002945      -35.166348
 C         -43.427563     -114.133125      -35.602699
 C         -42.561001     -112.283012      -34.105396
 C         -43.808617     -112.961655      -34.710155
 H         -41.962997     -114.745987      -37.179688
 H         -42.624828     -113.135551      -37.321480
 H         -40.541309     -111.682770      -34.718838
 H         -41.917526     -111.092773      -35.785347
 H         -43.247734     -115.076500      -35.090214
 H         -44.335880     -114.245445      -36.270267
 H         -42.792564     -111.270027      -33.587044
 H         -42.303143     -112.956146      -33.242981
 H         -44.385662     -113.285919      -33.779991
 H         -44.482052     -112.283028      -35.195023
