20
 generated by VMD
 C         -62.400089     -172.341461      -54.963066
 N         -61.484547     -172.933990      -55.270065
 H         -61.580555     -171.000687      -58.514328
 H         -63.245388     -171.791077      -54.572968
 C         -62.459850     -170.366898      -58.574718
 C         -62.444099     -168.948349      -57.930180
 C         -63.804085     -170.911331      -58.180298
 C         -63.650414     -168.032639      -58.371593
 C         -64.990265     -170.055878      -58.623466
 C         -64.913696     -168.740082      -57.985058
 H         -61.476311     -168.332443      -58.244328
 H         -62.444756     -169.072098      -56.921665
 H         -63.948475     -171.965225      -58.622410
 H         -63.706833     -170.997559      -57.031120
 H         -63.641525     -167.970230      -59.471901
 H         -63.464977     -166.974670      -57.975342
 H         -65.917236     -170.484421      -58.308895
 H         -65.033730     -169.968643      -59.647545
 H         -65.793167     -168.245773      -58.555927
 H         -65.085907     -168.613632      -56.909561
