20
 generated by VMD
 C         -22.749834      -53.044697      -12.500672
 N         -22.781904      -52.533859      -13.580534
 H         -20.364305      -54.441467      -14.593773
 H         -22.766287      -53.659912      -11.361036
 C         -19.416489      -54.254375      -13.981085
 C         -19.053938      -52.777905      -13.889582
 C         -18.542507      -55.329880      -13.539684
 C         -17.589626      -52.543301      -13.572790
 C         -17.164593      -54.879055      -12.952514
 C         -16.582405      -53.645954      -13.550875
 H         -19.712015      -52.156086      -13.250224
 H         -19.290375      -52.328262      -14.872277
 H         -19.118750      -55.914433      -12.822896
 H         -18.238073      -55.998287      -14.398905
 H         -17.614178      -52.138142      -12.536927
 H         -17.190548      -51.730793      -14.192847
 H         -16.482115      -55.698792      -13.014409
 H         -17.294430      -54.673672      -11.828181
 H         -15.668035      -53.425659      -13.041602
 H         -16.252127      -53.840900      -14.540148
