20
 generated by VMD
 C         -69.698212     -185.019989      -66.692451
 N         -69.038818     -184.701721      -67.588844
 H         -69.636269     -183.328308      -63.223873
 H         -70.241898     -185.320068      -65.839706
 C         -69.290779     -183.270996      -62.162403
 C         -69.548836     -184.417191      -61.282711
 C         -68.155121     -182.438492      -61.770981
 C         -68.318886     -185.222305      -60.927155
 C         -66.940079     -183.183563      -61.247997
 C         -67.260124     -184.322083      -60.266010
 H         -70.282898     -185.057922      -61.767502
 H         -69.995331     -184.075943      -60.291222
 H         -67.852692     -182.035141      -62.772243
 H         -68.406761     -181.647934      -61.126373
 H         -67.863396     -185.604691      -61.916218
 H         -68.610481     -186.133102      -60.311451
 H         -66.209930     -182.500320      -60.772449
 H         -66.547691     -183.694626      -62.138855
 H         -66.358513     -184.871002      -60.293922
 H         -67.411575     -183.955780      -59.212482
