20
 generated by VMD
 C         -38.019623     -109.645561      -36.451042
 N         -37.424797     -108.874924      -35.838203
 H         -41.093678     -111.929321      -37.347931
 H         -38.367638     -110.350403      -37.219246
 C         -41.568077     -112.250046      -36.381203
 C         -42.290916     -113.457687      -36.417801
 C         -41.695465     -111.289894      -35.187004
 C         -42.722237     -114.038910      -35.063210
 C         -42.291290     -111.762741      -33.891720
 C         -43.272869     -112.910973      -34.118095
 H         -41.607147     -114.187935      -36.877632
 H         -43.158459     -113.435135      -36.972218
 H         -40.699890     -111.061874      -35.024284
 H         -42.152237     -110.502663      -35.708599
 H         -41.939781     -114.568130      -34.578182
 H         -43.567917     -114.640297      -35.326794
 H         -42.703201     -110.920013      -33.346451
 H         -41.492096     -112.111694      -33.250767
 H         -43.673531     -113.278992      -33.080685
 H         -44.158508     -112.485191      -34.615726
