20
 generated by VMD
 C         -58.398235     -160.147034      -57.004623
 N         -58.635864     -159.856079      -58.082550
 H         -58.790489     -162.831314      -54.763779
 H         -58.267982     -160.384842      -55.973701
 C         -59.644051     -163.147629      -54.208344
 C         -59.460518     -163.109787      -52.698498
 C         -61.068893     -163.224304      -54.783230
 C         -60.321140     -162.046890      -52.024601
 C         -61.886112     -162.227936      -54.006477
 C         -61.794689     -162.237869      -52.467327
 H         -58.361404     -163.072647      -52.396111
 H         -59.654499     -164.194275      -52.238564
 H         -61.088093     -162.987610      -55.803600
 H         -61.542328     -164.246628      -54.680458
 H         -59.908524     -161.007812      -52.412968
 H         -60.107403     -162.145294      -50.997284
 H         -62.880016     -162.422745      -54.322334
 H         -61.699589     -161.214035      -54.157932
 H         -62.472046     -161.534042      -51.973904
 H         -62.212776     -163.248169      -52.048664
