20
 generated by VMD
 C         -20.064356      -56.144623      -16.778900
 N         -21.154358      -56.399979      -16.516697
 H         -21.876465      -59.330559      -17.358858
 H         -19.053297      -55.879135      -16.933151
 C         -22.224644      -59.920963      -16.503256
 C         -22.623896      -59.490707      -15.201122
 C         -22.043772      -61.485794      -16.550146
 C         -21.571548      -59.717361      -14.190695
 C         -20.892992      -61.842010      -15.597818
 C         -20.947851      -61.101994      -14.188502
 H         -23.534130      -60.071579      -14.930411
 H         -23.036259      -58.409309      -15.169325
 H         -22.935181      -61.989029      -16.220753
 H         -21.878172      -61.860886      -17.551950
 H         -21.935226      -59.514198      -13.220666
 H         -20.800762      -58.945526      -14.411716
 H         -19.928053      -61.558830      -16.083611
 H         -20.686110      -62.929852      -15.429828
 H         -21.680094      -61.688599      -13.674128
 H         -19.934326      -61.213116      -13.718830
