20
 generated by VMD
 C         -40.785015     -102.351730      -35.032635
 N         -41.575298     -102.213112      -35.877884
 H         -39.974285     -104.635933      -32.128780
 H         -39.954990     -102.544769      -34.293659
 C         -38.910629     -104.799126      -31.954678
 C         -37.850380     -104.055626      -32.870117
 C         -38.384148     -105.965775      -31.187347
 C         -36.509663     -103.885155      -32.043545
 C         -37.043777     -105.643120      -30.415091
 C         -35.950302     -105.054886      -31.304306
 H         -38.229836     -103.001236      -33.003315
 H         -37.494282     -104.490601      -33.803028
 H         -39.165489     -106.313507      -30.450304
 H         -38.089912     -106.761940      -31.776575
 H         -36.637745     -103.065117      -31.365244
 H         -35.798096     -103.640373      -32.800308
 H         -36.746658     -106.492638      -29.809032
 H         -37.318840     -104.856628      -29.693390
 H         -35.050007     -104.846176      -30.792446
 H         -35.787689     -105.847374      -32.093067
