20
 generated by VMD
 C         -21.667986      -66.746811      -16.838919
 N         -20.987703      -66.900970      -15.910117
 H         -24.215445      -64.628441      -18.252798
 H         -22.512421      -66.363373      -17.480391
 C         -24.543465      -65.614037      -18.487270
 C         -24.084085      -66.033958      -19.860229
 C         -25.861948      -66.015511      -18.011608
 C         -24.281445      -67.518593      -20.145500
 C         -26.012663      -67.524437      -18.214392
 C         -25.690561      -67.890213      -19.605587
 H         -23.070866      -65.774323      -19.975655
 H         -24.691456      -65.481155      -20.572748
 H         -26.103735      -65.575844      -16.948204
 H         -26.717987      -65.677933      -18.686905
 H         -23.514635      -68.142204      -19.680075
 H         -24.224964      -67.616951      -21.221308
 H         -27.040894      -67.859062      -18.109913
 H         -25.479786      -68.159103      -17.502380
 H         -25.548788      -69.003593      -19.602484
 H         -26.487253      -67.677193      -20.316582
