20
 generated by VMD
 C         -49.246380     -140.923309      -45.480541
 N         -48.152931     -141.253677      -45.122131
 H         -51.314484     -138.516541      -46.046585
 H         -50.174934     -140.451813      -45.890083
 C         -52.012913     -139.372620      -46.291496
 C         -52.635067     -139.449448      -47.568413
 C         -52.862541     -139.849213      -45.156940
 C         -53.378468     -140.726425      -48.033569
 C         -53.447964     -141.245041      -45.459541
 C         -54.224174     -141.158386      -46.766788
 H         -52.018349     -139.072617      -48.382248
 H         -53.366074     -138.621338      -47.435078
 H         -52.257008     -139.977371      -44.295193
 H         -53.608997     -139.146149      -44.986767
 H         -52.509396     -141.336807      -48.394939
 H         -54.066998     -140.592834      -48.863640
 H         -54.191204     -141.337219      -44.696247
 H         -52.765629     -142.110077      -45.579502
 H         -54.638981     -142.174561      -46.937763
 H         -55.160534     -140.422836      -46.808002
