20
 generated by VMD
 C         -60.239601     -156.414902      -55.927246
 N         -60.821339     -155.380539      -55.842728
 H         -59.693768     -157.732285      -53.040649
 H         -59.713829     -157.377151      -55.856422
 C         -58.845833     -157.850388      -52.486748
 C         -57.864902     -156.673294      -52.545078
 C         -58.265194     -159.238159      -51.986115
 C         -57.318420     -156.530640      -51.157928
 C         -57.576321     -159.015182      -50.630749
 C         -56.629215     -157.768005      -50.625023
 H         -58.411625     -155.745575      -52.956165
 H         -57.126488     -156.732346      -53.359837
 H         -59.142467     -159.953751      -51.908039
 H         -57.509193     -159.746262      -52.658749
 H         -58.100708     -156.431854      -50.498280
 H         -56.711060     -155.617996      -51.022388
 H         -56.894764     -159.886383      -50.333454
 H         -58.380585     -158.907211      -49.829308
 H         -56.259361     -157.567581      -49.690193
 H         -55.765274     -158.047287      -51.343170
