20
 generated by VMD
 C         -50.571781     -129.388474      -43.171444
 N         -50.370453     -128.298599      -42.891842
 H         -48.491730     -128.233002      -40.375427
 H         -50.933006     -130.401184      -43.210850
 C         -47.477818     -127.806824      -40.483147
 C         -46.360405     -128.688507      -39.934853
 C         -47.154625     -126.414970      -40.912643
 C         -45.371685     -128.753296      -40.994091
 C         -46.186134     -126.619408      -42.094452
 C         -45.006287     -127.432251      -41.540791
 H         -46.876694     -129.647491      -39.604206
 H         -46.011806     -128.120056      -39.087818
 H         -47.961079     -125.763039      -41.324043
 H         -46.643593     -125.889450      -40.161259
 H         -45.709026     -129.413055      -41.813854
 H         -44.536232     -129.430069      -40.752163
 H         -45.958149     -125.652603      -42.518337
 H         -46.749001     -127.084824      -42.905983
 H         -44.341003     -127.594254      -42.361931
 H         -44.496632     -126.771652      -40.815544
