20
 generated by VMD
 C         -49.969624     -131.922958      -46.643726
 N         -50.001980     -132.580734      -47.666084
 H         -48.173786     -132.077301      -43.987022
 H         -49.822342     -131.503845      -45.656216
 C         -48.676968     -132.832947      -43.365269
 C         -49.529713     -133.935989      -43.881516
 C         -48.900917     -132.394699      -41.968674
 C         -49.429005     -135.149353      -42.939335
 C         -48.790409     -133.584045      -41.029270
 C         -49.601486     -134.789749      -41.426949
 H         -49.366982     -134.349762      -44.940674
 H         -50.583611     -133.697754      -43.777702
 H         -48.146400     -131.669342      -41.591434
 H         -49.763630     -131.854324      -41.931934
 H         -48.435371     -135.514954      -42.978577
 H         -50.138840     -135.923019      -43.177280
 H         -48.998863     -133.246674      -40.007725
 H         -47.644157     -133.990906      -41.089596
 H         -49.271156     -135.555099      -40.701900
 H         -50.593185     -134.669434      -41.016537
