20
 generated by VMD
 C         -58.393547     -159.028046      -58.014236
 N         -59.220093     -159.053940      -57.278786
 H         -58.963562     -160.356735      -54.796436
 H         -57.569939     -158.948166      -58.714790
 C         -59.492641     -160.713760      -53.895988
 C         -58.595604     -161.041214      -52.724819
 C         -60.712914     -161.753876      -54.128727
 C         -59.378910     -161.201126      -51.468090
 C         -61.463730     -161.745193      -52.772343
 C         -60.619972     -162.147964      -51.490086
 H         -57.744144     -160.323456      -52.461109
 H         -58.050594     -161.903427      -53.065807
 H         -61.409790     -161.445801      -54.819313
 H         -60.184532     -162.671799      -54.425293
 H         -59.664703     -160.245438      -51.124416
 H         -58.730621     -161.610123      -50.638809
 H         -62.193474     -162.548782      -52.869267
 H         -61.918224     -160.800156      -52.560089
 H         -61.267334     -162.211014      -50.589870
 H         -60.361599     -163.193695      -51.600075
