20
 generated by VMD
 C         -70.078880     -181.361496      -62.843918
 N         -71.159294     -181.104187      -63.270958
 H         -67.561798     -181.778320      -60.736301
 H         -69.077721     -181.650543      -62.546875
 C         -66.848419     -180.906952      -60.834553
 C         -65.476700     -181.203934      -60.537506
 C         -67.299164     -179.558350      -60.599262
 C         -64.397362     -180.057297      -60.651237
 C         -66.278084     -178.389389      -60.952854
 C         -64.962181     -178.692429      -60.229290
 H         -65.216904     -182.062103      -61.182510
 H         -65.464302     -181.692764      -59.505894
 H         -68.088814     -179.341446      -61.214325
 H         -67.621399     -179.451523      -59.613281
 H         -64.085793     -179.852188      -61.641079
 H         -63.611530     -180.457123      -60.089832
 H         -66.632408     -177.358459      -60.745819
 H         -66.069122     -178.426407      -62.045105
 H         -64.325241     -177.937073      -60.584042
 H         -64.979034     -178.457458      -59.168114
