20
 generated by VMD
 C          -5.859371      -21.950222        1.921009
 N          -6.573438      -22.740059        2.241244
 H          -5.290791      -19.239635       -0.573113
 H          -6.670474      -20.149261       -0.159515
 C          -6.115173      -19.826151       -1.045401
 C          -5.625060      -20.982733       -1.948002
 C          -7.136195      -18.929741       -1.768610
 C          -6.835897      -21.908377       -2.321403
 C          -8.351098      -19.853018       -2.219003
 C          -7.927035      -21.112904       -3.031225
 H          -4.854036      -21.639788       -1.479379
 H          -5.234725      -20.525307       -2.874094
 H          -7.618664      -18.081188       -1.121451
 H          -6.741030      -18.513737       -2.736630
 H          -7.232253      -22.447140       -1.426375
 H          -6.518077      -22.685555       -3.041120
 H          -9.018594      -19.265194       -2.847248
 H          -8.939647      -20.133591       -1.332019
 H          -8.829008      -21.787140       -3.079306
 H          -7.618021      -20.813732       -4.073488
