20
 generated by VMD
 C          -1.971680       -8.573669        0.370504
 N          -2.044623       -9.122543       -0.597033
 H          -2.941657      -10.087050        2.661657
 H          -2.011004      -11.276186        3.634566
 C          -2.914307      -11.071619        3.086450
 C          -2.925134      -12.133248        1.990069
 C          -4.059637      -11.178294        4.022561
 C          -3.251614      -13.509891        2.575228
 C          -4.289149      -12.516994        4.600497
 C          -4.521987      -13.469304        3.413586
 H          -1.977433      -12.258515        1.430611
 H          -3.756290      -11.986863        1.298768
 H          -3.890368      -10.403224        4.811227
 H          -4.988973      -10.859123        3.447429
 H          -2.455142      -14.005325        3.126207
 H          -3.572132      -14.142362        1.711068
 H          -5.202495      -12.575696        5.245290
 H          -3.458473      -12.876822        5.253511
 H          -4.741165      -14.450111        3.823151
 H          -5.400296      -13.078424        2.895113
