20
 generated by VMD
 C         -58.549347     -161.777039      -56.460655
 N         -57.987621     -160.866470      -56.088966
 H         -59.383751     -164.760803      -55.312767
 H         -59.139877     -162.610504      -56.789101
 C         -60.243824     -164.319580      -54.823231
 C         -60.027664     -163.676544      -53.558464
 C         -61.629787     -164.410492      -55.219296
 C         -60.740318     -162.295135      -53.386433
 C         -62.547768     -163.156403      -54.761124
 C         -62.114799     -162.477127      -53.463924
 H         -58.910633     -163.534729      -53.482014
 H         -60.213127     -164.301727      -52.658047
 H         -61.658070     -164.451691      -56.375095
 H         -62.096806     -165.353821      -54.997669
 H         -60.335587     -161.549561      -54.082596
 H         -60.260185     -161.934860      -52.451988
 H         -63.476124     -163.541870      -54.535194
 H         -62.447994     -162.404510      -55.500011
 H         -62.646706     -161.562622      -53.210411
 H         -62.312565     -163.248627      -52.632233
