20
 generated by VMD
 C         -13.800618      -28.058567       -2.904640
 N         -14.044893      -27.169514       -3.526451
 H         -10.396702      -27.933220       -2.932735
 H          -9.719971      -26.993223       -4.297630
 C          -9.488470      -27.740469       -3.578933
 C          -8.880965      -28.966621       -4.317988
 C          -8.461713      -27.117836       -2.598769
 C          -7.583828      -28.577745       -5.027556
 C          -7.200247      -26.696243       -3.352599
 C          -6.620947      -27.964283       -4.014341
 H          -9.500717      -29.335579       -5.096970
 H          -8.678652      -29.776468       -3.534581
 H          -8.912081      -26.218082       -2.131485
 H          -8.115839      -27.887444       -1.819044
 H          -7.809114      -27.863049       -5.798228
 H          -7.233112      -29.437380       -5.490783
 H          -6.432812      -26.206984       -2.712393
 H          -7.478817      -26.014189       -4.160697
 H          -5.666259      -27.804832       -4.510002
 H          -6.352511      -28.675158       -3.167653
