20
 generated by VMD
 C         -68.344284     -194.248337      -66.508179
 N         -67.722549     -194.030670      -65.558388
 H         -70.306320     -190.851959      -66.407326
 H         -69.207245     -194.524979      -67.185501
 C         -71.267242     -191.013290      -65.975204
 C         -72.417778     -190.251831      -66.619888
 C         -71.509697     -191.877121      -64.805176
 C         -73.748413     -190.918640      -66.531013
 C         -72.875267     -191.732513      -64.273125
 C         -73.861153     -191.989182      -65.362152
 H         -72.108086     -189.992554      -67.677025
 H         -72.338478     -189.324463      -66.104141
 H         -71.299316     -193.004822      -65.035362
 H         -70.840691     -191.702347      -63.945328
 H         -74.042641     -191.432739      -67.510780
 H         -74.636703     -190.260376      -66.491409
 H         -72.969528     -190.764877      -63.763824
 H         -73.085556     -192.561523      -63.536644
 H         -73.657700     -192.923660      -65.735519
 H         -74.987389     -192.067780      -65.083176
