20
 generated by VMD
 C         -47.444183     -124.689384      -38.009171
 N         -47.583267     -125.707489      -38.608471
 H         -44.721100     -122.455910      -37.737957
 H         -47.068302     -123.857208      -37.430454
 C         -44.767601     -122.457230      -38.795033
 C         -43.653469     -123.199608      -39.487221
 C         -45.710094     -121.648811      -39.531586
 C         -44.081066     -123.703674      -40.862804
 C         -46.144135     -122.162064      -40.853741
 C         -44.989265     -122.804726      -41.674450
 H         -43.340195     -124.006935      -38.779861
 H         -42.822643     -122.625580      -39.628056
 H         -46.513195     -121.596001      -38.869492
 H         -45.331459     -120.596611      -39.641785
 H         -44.643280     -124.607597      -40.727325
 H         -43.269260     -123.696449      -41.492878
 H         -46.686131     -121.535927      -41.603325
 H         -46.841072     -123.079704      -40.613400
 H         -45.368755     -123.423096      -42.510654
 H         -44.366020     -122.098526      -42.184475
