20
 generated by VMD
 C         -58.527008     -151.888824      -49.584637
 N         -59.510139     -152.214645      -49.088013
 H         -56.082581     -149.934387      -48.204247
 H         -57.683697     -151.562485      -50.138123
 C         -55.125095     -149.606140      -48.716022
 C         -54.196384     -150.651688      -49.355164
 C         -54.823345     -148.179733      -48.987999
 C         -54.216000     -150.372299      -50.864868
 C         -54.777462     -147.834518      -50.516426
 C         -53.888641     -148.835648      -51.260872
 H         -54.574150     -151.671234      -49.060390
 H         -53.227959     -150.537781      -49.004066
 H         -55.583870     -147.618744      -48.480732
 H         -53.906425     -147.981262      -48.403065
 H         -55.281456     -150.382767      -51.114429
 H         -53.674164     -151.046631      -51.525887
 H         -54.147076     -146.808716      -50.523338
 H         -55.765511     -147.799561      -50.803165
 H         -53.974041     -148.708984      -52.319630
 H         -52.811352     -148.565598      -50.920555
