20
 generated by VMD
 C         -27.989206      -82.503410      -27.097126
 N         -27.220821      -83.328224      -26.794203
 H         -31.152355      -84.139206      -26.502316
 H         -28.757484      -81.637138      -27.217381
 C         -31.717098      -84.841522      -25.843012
 C         -31.370010      -84.748360      -24.355146
 C         -32.269394      -86.258583      -26.261982
 C         -32.332527      -85.500435      -23.424156
 C         -33.215271      -86.882568      -25.250961
 C         -32.580765      -86.899025      -23.866209
 H         -31.306562      -83.659782      -24.024172
 H         -30.376163      -85.161987      -24.200518
 H         -32.697430      -86.337532      -27.241379
 H         -31.279398      -86.805847      -26.406471
 H         -33.384262      -84.937988      -23.405920
 H         -31.881853      -85.488922      -22.452269
 H         -33.537849      -87.826157      -25.560856
 H         -34.154743      -86.276688      -25.154703
 H         -33.266411      -87.533112      -23.343979
 H         -31.775499      -87.592499      -23.883766
