20
 generated by VMD
 C         -29.517593      -74.523613      -19.996952
 N         -30.602724      -74.709259      -20.292782
 H         -25.876528      -73.810425      -18.765278
 H         -28.351194      -74.577164      -19.891315
 C         -25.707314      -73.676498      -19.844475
 C         -25.517221      -74.817200      -20.730688
 C         -25.524908      -72.327888      -20.492027
 C         -26.101168      -74.620239      -22.115267
 C         -26.103893      -72.192856      -21.926859
 C         -25.636009      -73.351555      -22.832602
 H         -26.197189      -75.655090      -20.276176
 H         -24.450098      -75.155281      -20.872423
 H         -26.147425      -71.669678      -19.890848
 H         -24.420650      -72.082558      -20.383705
 H         -27.212854      -74.688866      -22.236916
 H         -25.715385      -75.565689      -22.545832
 H         -25.878601      -71.229980      -22.375017
 H         -27.179932      -72.097206      -21.931700
 H         -26.160084      -73.272148      -23.784515
 H         -24.466410      -73.256332      -22.984209
