20
 generated by VMD
 C         -55.598507     -148.915817      -45.422977
 N         -54.965118     -149.397644      -44.592964
 H         -54.214119     -148.082001      -48.269104
 H         -56.234558     -148.572098      -46.246025
 C         -54.249645     -147.272888      -48.968487
 C         -53.209000     -147.228271      -49.983997
 C         -54.980221     -145.999893      -48.497074
 C         -53.429066     -146.164017      -51.081215
 C         -55.177486     -145.017563      -49.722443
 C         -53.878281     -144.774063      -50.562683
 H         -53.125366     -148.250061      -50.473900
 H         -52.289921     -146.904831      -49.417336
 H         -55.904446     -146.220169      -48.049301
 H         -54.467319     -145.453705      -47.765656
 H         -54.056042     -146.474518      -51.889557
 H         -52.433666     -145.953674      -51.513996
 H         -55.793930     -144.160446      -49.459312
 H         -55.767754     -145.632248      -50.361290
 H         -54.030674     -144.009308      -51.392651
 H         -53.079048     -144.418503      -49.948387
