20
 generated by VMD
 C         -46.555157     -124.480652      -36.616093
 N         -46.989674     -125.140472      -35.800911
 H         -44.583023     -122.108475      -37.941097
 H         -46.320713     -124.013626      -37.582890
 C         -44.635395     -121.895226      -39.053459
 C         -43.326637     -121.820045      -39.714188
 C         -45.722336     -121.042297      -39.500835
 C         -43.473248     -121.959198      -41.237156
 C         -46.016277     -121.203583      -41.000206
 C         -44.711807     -121.290131      -41.876690
 H         -42.626122     -122.548645      -39.385284
 H         -43.234589     -120.736351      -39.389523
 H         -46.698570     -121.297577      -38.986744
 H         -45.554710     -120.020760      -39.212521
 H         -43.694363     -122.976807      -41.447212
 H         -42.577656     -121.723343      -41.653934
 H         -46.712452     -120.456558      -41.454144
 H         -46.506966     -122.193954      -41.232613
 H         -44.863308     -121.624008      -42.891140
 H         -44.301048     -120.278824      -42.121822
