20
 generated by VMD
 C         -68.307175     -194.244308      -66.140228
 N         -67.781998     -194.431534      -65.152603
 H         -70.717880     -191.406479      -67.289322
 H         -68.503906     -193.981659      -67.140114
 C         -71.548767     -191.488480      -66.598930
 C         -72.386856     -190.255310      -66.460381
 C         -71.600151     -192.545227      -65.537804
 C         -73.863083     -190.675232      -66.245811
 C         -72.910759     -192.339478      -64.604813
 C         -74.107918     -191.967743      -65.567848
 H         -72.281563     -189.400192      -67.197411
 H         -72.135818     -189.752792      -65.484116
 H         -71.505920     -193.500473      -66.024353
 H         -70.701675     -192.414124      -64.898018
 H         -74.356926     -190.608002      -67.266174
 H         -74.276939     -189.781097      -65.709610
 H         -72.603943     -191.570480      -63.879353
 H         -73.191772     -193.306229      -64.146950
 H         -74.247337     -192.859558      -66.325348
 H         -74.967766     -191.875717      -65.053322
