20
 generated by VMD
 C         -58.438889     -159.079819      -57.684372
 N         -59.295345     -158.383667      -57.820961
 H         -59.606686     -159.398880      -54.045773
 H         -57.607513     -159.762955      -57.596603
 C         -59.432400     -160.480469      -53.795959
 C         -58.450977     -160.733398      -52.661503
 C         -60.682487     -161.420364      -53.873299
 C         -59.287735     -160.858978      -51.401970
 C         -61.284435     -161.791962      -52.467506
 C         -60.261509     -162.078400      -51.408600
 H         -57.803101     -159.856979      -52.605976
 H         -57.673336     -161.588791      -52.937546
 H         -61.392456     -160.903458      -54.471344
 H         -60.457062     -162.407593      -54.252541
 H         -59.880981     -159.964340      -51.232143
 H         -58.481129     -161.181717      -50.611076
 H         -61.929565     -162.630081      -52.561703
 H         -61.837730     -160.937805      -52.152378
 H         -60.673367     -162.152542      -50.435406
 H         -59.597958     -162.938522      -51.719856
