20
 generated by VMD
 C         -78.702072     -209.056030      -77.142517
 N         -79.635338     -208.557953      -76.606384
 H         -78.414284     -209.107147      -73.170074
 H         -77.765083     -209.386459      -77.483559
 C         -78.250549     -209.823669      -72.355026
 C         -76.986893     -209.770981      -71.445473
 C         -79.178993     -211.070206      -72.278793
 C         -77.101395     -210.476379      -70.103256
 C         -79.431725     -211.488266      -70.915108
 C         -78.097740     -211.713699      -70.235893
 H         -76.747566     -208.671036      -71.330681
 H         -76.166817     -210.286301      -71.947647
 H         -80.041962     -210.912857      -72.925400
 H         -78.621140     -212.003708      -72.647957
 H         -77.556374     -209.739502      -69.419273
 H         -76.130516     -210.854019      -69.734848
 H         -80.048813     -212.294846      -70.819611
 H         -80.004868     -210.546097      -70.523407
 H         -78.352127     -211.946228      -69.207100
 H         -77.696220     -212.662643      -70.618042
