20
 generated by VMD
 C         -10.197795      -24.699467       -0.551294
 N         -11.307529      -24.892822       -0.598325
 H          -6.270387      -25.292294       -0.992981
 H          -7.870336      -25.146217       -1.215748
 C          -6.964979      -25.008759       -1.783408
 C          -6.796465      -25.863180       -3.019367
 C          -6.867130      -23.544439       -2.018866
 C          -7.951262      -25.385857       -3.990864
 C          -7.961613      -23.045958       -3.053353
 C          -7.864591      -23.937431       -4.358295
 H          -7.069398      -26.886976       -2.744450
 H          -5.825408      -25.684900       -3.454641
 H          -6.957704      -23.062567       -0.996489
 H          -5.883579      -23.334711       -2.477699
 H          -8.936760      -25.591738       -3.494887
 H          -7.807851      -25.898081       -4.954929
 H          -7.792954      -21.990467       -3.275916
 H          -9.005728      -23.126291       -2.710616
 H          -8.689170      -23.661901       -5.067605
 H          -6.942358      -23.674437       -4.864347
