20
 generated by VMD
 C         -36.811993      -98.202911      -27.189964
 N         -37.831799      -98.316795      -26.632896
 H         -36.507332      -96.241295      -28.892443
 H         -35.917572      -98.160225      -27.814579
 C         -35.570412      -96.508911      -29.405523
 C         -35.439777      -97.152657      -30.749025
 C         -34.468620      -95.544922      -29.048052
 C         -35.039543      -96.112984      -31.840757
 C         -34.246758      -94.526726      -30.203741
 C         -33.850838      -95.321281      -31.561319
 H         -36.378147      -97.688957      -30.988443
 H         -34.671661      -97.996826      -30.691774
 H         -34.603077      -94.812431      -28.274984
 H         -33.620190      -96.146538      -28.791441
 H         -35.917553      -95.455971      -31.971302
 H         -34.764442      -96.568932      -32.789783
 H         -33.416985      -93.726295      -29.921814
 H         -35.121727      -93.926399      -30.390638
 H         -33.580906      -94.677559      -32.303062
 H         -32.965515      -96.007729      -31.212803
