20
 generated by VMD
 C         -46.712139     -124.689339      -37.685768
 N         -46.913784     -124.555527      -36.528362
 H         -44.842278     -122.501709      -37.808399
 H         -46.424728     -124.897507      -38.728874
 C         -44.847797     -122.304474      -38.823925
 C         -43.457344     -122.258499      -39.610710
 C         -45.864372     -121.383423      -39.437725
 C         -43.695175     -122.539444      -41.063301
 C         -46.063671     -121.811630      -40.897694
 C         -44.771271     -121.512627      -41.613907
 H         -42.634029     -122.970436      -39.200298
 H         -43.098076     -121.188683      -39.562271
 H         -46.863110     -121.632957      -38.973999
 H         -45.701462     -120.317375      -39.268826
 H         -43.870743     -123.614594      -41.346283
 H         -42.788731     -122.509552      -41.603428
 H         -46.711819     -121.046043      -41.333805
 H         -46.480438     -122.809975      -41.213970
 H         -44.915436     -121.712021      -42.678455
 H         -44.544880     -120.437775      -41.576633
