20
 generated by VMD
 C         -79.710533     -206.979156      -74.295876
 N         -80.394531     -206.049545      -74.612511
 H         -78.064018     -206.733337      -71.954987
 H         -79.017502     -207.675232      -73.894814
 C         -77.121567     -207.234879      -71.585297
 C         -75.891754     -206.422333      -71.557251
 C         -77.250160     -208.475281      -70.766716
 C         -75.439392     -206.175186      -70.146645
 C         -76.801399     -208.119339      -69.269562
 C         -75.428047     -207.460815      -69.292107
 H         -76.003906     -205.407211      -72.047226
 H         -75.046310     -206.923141      -72.072990
 H         -78.281837     -208.857986      -70.883118
 H         -76.580864     -209.117416      -71.259026
 H         -76.005249     -205.387878      -69.585442
 H         -74.490799     -205.641052      -70.275482
 H         -76.731331     -209.084564      -68.758598
 H         -77.514854     -207.470322      -68.758003
 H         -74.883476     -207.210815      -68.407089
 H         -74.737480     -208.184433      -69.803391
