20
 generated by VMD
 C         -58.225662     -165.580765      -56.275246
 N         -57.303436     -165.426407      -56.895664
 H         -60.799198     -164.558914      -53.780155
 H         -59.068298     -165.791321      -55.667225
 C         -61.456150     -164.932205      -54.555141
 C         -61.733982     -166.354645      -54.822010
 C         -61.882214     -163.955994      -55.701744
 C         -63.226059     -166.433990      -54.879772
 C         -63.384163     -164.143585      -55.889683
 C         -63.808426     -165.540726      -55.915859
 H         -61.417645     -166.898071      -54.005924
 H         -61.118282     -166.743164      -55.673309
 H         -61.494362     -162.969406      -55.381226
 H         -61.342663     -164.276184      -56.522797
 H         -63.699089     -166.142197      -54.000179
 H         -63.641640     -167.365723      -55.067032
 H         -63.703865     -163.395950      -56.709217
 H         -63.843842     -163.513138      -55.032837
 H         -64.918297     -165.514236      -55.874908
 H         -63.423477     -165.958771      -56.930561
