20
 generated by VMD
 C         -56.216621     -150.137421      -46.836567
 N         -57.043758     -150.410095      -46.068523
 H         -53.778175     -148.051346      -47.473122
 H         -55.554401     -149.697647      -47.540749
 C         -53.780083     -147.559402      -48.459618
 C         -53.098766     -147.980331      -49.769627
 C         -54.422813     -146.113663      -48.579605
 C         -53.820808     -147.745636      -51.074921
 C         -55.432171     -146.187057      -49.791531
 C         -54.639214     -146.414291      -51.178490
 H         -52.814270     -149.073151      -49.795212
 H         -52.204105     -147.276276      -49.673027
 H         -54.870152     -145.834946      -47.602665
 H         -53.635738     -145.419098      -48.988853
 H         -54.625015     -148.455109      -51.231228
 H         -53.092537     -147.857147      -51.952770
 H         -56.052162     -145.164505      -49.801197
 H         -56.210804     -146.860321      -49.723267
 H         -55.383053     -146.386765      -51.996452
 H         -53.871338     -145.618057      -51.335941
