20
 generated by VMD
 C         -12.493710      -28.160501       -5.456992
 N         -13.177041      -28.273294       -6.338613
 H         -11.957661      -31.692488       -4.630696
 H         -11.159716      -30.167126       -5.176530
 C         -11.051966      -31.090242       -4.595735
 C          -9.923698      -31.898653       -5.267295
 C         -10.636419      -30.683859       -3.144935
 C          -8.503045      -31.204210       -5.223776
 C          -9.329654      -29.824089       -3.204593
 C          -8.173742      -30.686401       -3.809498
 H         -10.215361      -32.210312       -6.300473
 H          -9.638390      -32.809402       -4.675463
 H         -11.409175      -30.114000       -2.612272
 H         -10.418341      -31.608351       -2.621466
 H          -8.475422      -30.357166       -5.973695
 H          -7.690868      -31.944345       -5.441367
 H          -8.994963      -29.462717       -2.270679
 H          -9.588694      -28.913641       -3.823372
 H          -7.287712      -30.003462       -3.963448
 H          -7.984566      -31.608667       -3.200201
