20
 generated by VMD
 C         -30.796745      -78.186111      -25.964956
 N         -31.849632      -77.579361      -25.919775
 H         -29.169607      -77.832939      -22.733839
 H         -29.880360      -78.577408      -26.208330
 C         -28.846928      -78.840462      -22.876240
 C         -27.396584      -79.012047      -23.257893
 C         -29.722998      -80.043938      -22.472998
 C         -26.733141      -79.782928      -22.168077
 C         -28.944994      -80.776100      -21.327835
 C         -27.533279      -81.027267      -21.655668
 H         -26.878210      -78.122406      -23.305174
 H         -27.409628      -79.473419      -24.187386
 H         -30.783615      -79.738350      -22.189890
 H         -29.872801      -80.586121      -23.417822
 H         -26.414892      -79.216087      -21.281750
 H         -25.830404      -80.084015      -22.611359
 H         -29.405315      -81.809273      -21.313915
 H         -29.105066      -80.150421      -20.335884
 H         -27.003887      -81.425385      -20.741304
 H         -27.551508      -81.849800      -22.422424
