20
 generated by VMD
 C          -7.156359      -23.458576        1.809312
 N          -7.369222      -22.419479        2.114281
 H          -8.932428      -23.430353       -1.197047
 H          -9.347774      -22.375803       -2.637076
 C          -8.496167      -22.755436       -2.045179
 C          -7.575149      -23.520632       -2.987471
 C          -7.713236      -21.611912       -1.356305
 C          -6.940659      -22.513216       -4.006445
 C          -7.136163      -20.648108       -2.368610
 C          -6.315409      -21.308170       -3.403541
 H          -8.178603      -24.314070       -3.420151
 H          -6.670796      -23.918159       -2.412686
 H          -8.274637      -20.968842       -0.686583
 H          -6.977751      -22.108339       -0.730392
 H          -7.768281      -22.089020       -4.574164
 H          -6.238991      -23.019222       -4.692285
 H          -6.567557      -19.822107       -1.956422
 H          -7.965593      -20.170055       -2.891908
 H          -5.925869      -20.590618       -4.154078
 H          -5.405922      -21.649841       -2.814600
