20
 generated by VMD
 C         -65.051910     -175.713959      -55.815063
 N         -64.664001     -176.788513      -56.077103
 H         -63.944710     -174.145340      -58.182404
 H         -65.414322     -174.727036      -55.507217
 C         -64.503006     -173.514374      -58.959591
 C         -65.501366     -172.357559      -58.553009
 C         -63.929550     -173.357346      -60.441635
 C         -64.583839     -171.207199      -58.464321
 C         -63.108326     -171.947464      -60.529781
 C         -63.882664     -170.870697      -59.751762
 H         -66.011642     -172.593811      -57.672794
 H         -66.190926     -172.403091      -59.417286
 H         -63.209175     -174.103851      -60.705112
 H         -64.754181     -173.208359      -61.061974
 H         -63.777782     -171.478973      -57.680080
 H         -65.061874     -170.246918      -58.119598
 H         -62.977871     -171.656967      -61.572056
 H         -62.098492     -172.063232      -60.063812
 H         -63.203129     -170.093643      -59.502182
 H         -64.669006     -170.510178      -60.428185
