20
 generated by VMD
 C         -11.923261      -25.615814       -0.792265
 N         -12.455957      -25.523350        0.170327
 H          -8.481406      -26.561182       -1.610980
 H          -9.200411      -25.904942       -3.069599
 C          -8.264219      -26.069967       -2.569283
 C          -7.438555      -26.837626       -3.579180
 C          -7.666890      -24.676897       -2.328378
 C          -7.098505      -25.999249       -4.849307
 C          -7.368003      -23.879961       -3.505273
 C          -6.513252      -24.608051       -4.470051
 H          -7.915434      -27.716486       -3.913996
 H          -6.535874      -27.169664       -3.184695
 H          -8.248984      -24.163397       -1.609478
 H          -6.677263      -24.908714       -1.869312
 H          -8.019247      -25.831985       -5.369300
 H          -6.558288      -26.663134       -5.500844
 H          -6.904186      -22.918095       -3.240353
 H          -8.278886      -23.591116       -4.010434
 H          -6.233590      -24.063969       -5.370208
 H          -5.496987      -24.682140       -3.953385
