20
 generated by VMD
 C         -19.638880      -50.023827       -9.392639
 N         -19.612856      -51.125778       -9.648023
 H         -16.502745      -47.785213      -10.016335
 H         -19.326927      -48.938160       -8.702576
 C         -16.691423      -48.156708      -11.072486
 C         -15.586632      -49.052280      -11.584964
 C         -17.321257      -47.212597      -12.038411
 C         -16.133940      -49.865154      -12.774507
 C         -17.952213      -48.016529      -13.194943
 C         -16.949680      -49.010498      -13.764493
 H         -15.287151      -49.822300      -10.812947
 H         -14.764721      -48.400970      -11.862720
 H         -18.145632      -46.709625      -11.569073
 H         -16.653233      -46.478897      -12.469263
 H         -16.809580      -50.707699      -12.403019
 H         -15.224208      -50.236473      -13.294441
 H         -18.222418      -47.204826      -13.971376
 H         -18.839037      -48.575970      -12.877675
 H         -17.454519      -49.676010      -14.487627
 H         -16.278566      -48.411575      -14.411574
