20
 generated by VMD
 C         -61.058586     -156.234573      -54.879578
 N         -60.242058     -155.613327      -55.503536
 H         -59.679722     -156.596054      -52.141335
 H         -61.906422     -156.757477      -54.376476
 C         -58.647785     -156.623779      -51.686371
 C         -57.975792     -155.290405      -51.518978
 C         -57.902699     -157.881012      -52.026890
 C         -56.724911     -155.551193      -50.650135
 C         -56.584820     -158.073685      -51.135448
 C         -55.801823     -156.704391      -51.090744
 H         -58.518600     -154.532135      -51.048855
 H         -57.731602     -155.020050      -52.555351
 H         -58.514771     -158.732239      -51.881580
 H         -57.607750     -157.860321      -53.121140
 H         -56.970238     -155.920944      -49.543831
 H         -56.139168     -154.580612      -50.723301
 H         -55.969105     -158.762955      -51.606709
 H         -56.765606     -158.315552      -50.070484
 H         -54.910576     -156.734619      -50.379047
 H         -55.419216     -156.522049      -52.072807
