20
 generated by VMD
 C         -37.018948      -98.384819      -25.662725
 N         -36.518383      -98.433983      -26.708155
 H         -36.261589      -95.934814      -28.586899
 H         -37.683537      -98.298447      -24.717033
 C         -35.658226      -95.596840      -29.352278
 C         -35.714886      -96.374008      -30.591518
 C         -34.476562      -94.720360      -29.209093
 C         -35.104328      -95.746246      -31.815954
 C         -33.790016      -94.068512      -30.473389
 C         -33.737247      -95.117653      -31.658617
 H         -36.831951      -96.599365      -30.750097
 H         -35.150654      -97.301865      -30.427208
 H         -34.576756      -93.933052      -28.477764
 H         -33.659927      -95.285362      -28.808617
 H         -35.647446      -94.898010      -32.262371
 H         -35.067459      -96.473824      -32.603935
 H         -32.820332      -93.738976      -30.120396
 H         -34.468586      -93.181427      -30.714602
 H         -33.311134      -94.647209      -32.408749
 H         -32.850628      -95.835327      -31.323200
