20
 generated by VMD
 C         -41.318592     -101.502930      -32.594147
 N         -41.812325     -101.524643      -33.652382
 H         -38.769016     -102.983200      -32.307621
 H         -40.867008     -101.070526      -31.751223
 C         -37.721092     -102.926559      -32.031662
 C         -36.535473     -103.003387      -32.949448
 C         -37.578075     -103.115402      -30.583328
 C         -35.347031     -102.144630      -32.364990
 C         -36.260723     -102.626923      -30.021811
 C         -35.010910     -102.816208      -30.998602
 H         -36.608593     -102.628143      -33.954880
 H         -36.131119     -104.035194      -33.009735
 H         -38.382183     -102.458755      -30.130493
 H         -37.732376     -104.145416      -30.347610
 H         -35.641956     -101.025597      -32.270313
 H         -34.497074     -102.196854      -33.069984
 H         -35.951168     -102.982040      -29.067957
 H         -36.470905     -101.459114      -29.873983
 H         -34.126118     -102.474686      -30.417677
 H         -34.779175     -103.907135      -31.224947
