20
 generated by VMD
 C         -68.793968     -184.654648      -65.966133
 N         -69.580444     -185.469788      -66.184898
 H         -69.706886     -183.092468      -63.731808
 H         -68.073860     -183.957291      -65.680168
 C         -69.182251     -183.684509      -63.030476
 C         -69.872292     -184.917984      -62.560238
 C         -67.915680     -183.296936      -62.363247
 C         -68.997047     -185.840042      -61.712616
 C         -67.222946     -184.068375      -61.194736
 C         -68.280525     -185.054352      -60.572544
 H         -70.203209     -185.493027      -63.464005
 H         -70.821632     -184.598282      -62.050404
 H         -67.212158     -182.949524      -63.102619
 H         -68.218262     -182.357071      -61.801903
 H         -68.287865     -186.280380      -62.404377
 H         -69.506310     -186.641266      -61.174206
 H         -66.875343     -183.462494      -60.319839
 H         -66.424652     -184.601868      -61.654194
 H         -67.594902     -185.816208      -60.084087
 H         -68.990135     -184.599762      -59.908318
