20
 generated by VMD
 C         -52.482327     -146.972153      -45.337334
 N         -53.296619     -147.388397      -44.593960
 H         -54.966995     -147.160950      -48.264648
 H         -51.680145     -146.503937      -45.921249
 C         -54.642906     -146.210007      -48.555664
 C         -53.379539     -146.085434      -49.285427
 C         -55.286736     -145.011719      -48.013531
 C         -53.281994     -144.938446      -50.330364
 C         -55.211903     -143.879913      -49.048214
 C         -53.853760     -143.659943      -49.747513
 H         -53.216366     -147.012512      -49.844322
 H         -52.561733     -145.893570      -48.627483
 H         -56.322758     -145.205017      -47.917603
 H         -54.737312     -144.756607      -47.114437
 H         -53.935242     -145.170639      -51.054501
 H         -52.239037     -144.788269      -50.568710
 H         -55.404881     -143.025940      -48.334522
 H         -56.076996     -143.935257      -49.796284
 H         -53.858849     -142.794586      -50.408890
 H         -53.180283     -143.502228      -48.891941
