20
 generated by VMD
 C         -13.333613      -44.981823       -6.117342
 N         -14.301476      -44.443745       -6.174046
 H         -14.931113      -44.419594       -9.198889
 H         -14.451344      -43.875206      -10.742939
 C         -15.322410      -44.268028      -10.175243
 C         -16.454380      -43.265949      -10.019172
 C         -15.729300      -45.660721      -10.763442
 C         -16.960787      -43.115677      -11.438002
 C         -16.151995      -45.468761      -12.225050
 C         -17.225834      -44.425407      -12.286893
 H         -16.122852      -42.274387       -9.665511
 H         -17.218548      -43.651325       -9.275864
 H         -14.918172      -46.391373      -10.562026
 H         -16.575077      -46.093922      -10.199697
 H         -16.215782      -42.538586      -11.991752
 H         -17.874996      -42.539551      -11.472296
 H         -16.477310      -46.368702      -12.747219
 H         -15.210108      -45.072926      -12.752094
 H         -17.408672      -44.222790      -13.332209
 H         -18.195852      -44.760647      -11.943812
