20
 generated by VMD
 C         -68.109932     -185.829269      -67.017883
 N         -68.242111     -184.849899      -67.603859
 H         -69.131569     -188.203903      -64.877960
 H         -68.074883     -186.735016      -66.399689
 C         -69.462776     -187.857605      -63.857388
 C         -69.010201     -186.494904      -63.384857
 C         -70.575005     -188.741058      -63.213985
 C         -69.440971     -186.130356      -61.934151
 C         -70.836128     -188.260727      -61.830750
 C         -70.749245     -186.790588      -61.599243
 H         -69.431335     -185.795914      -64.037819
 H         -67.926376     -186.552124      -63.360054
 H         -71.490555     -188.366653      -63.694939
 H         -70.422203     -189.792053      -63.240864
 H         -69.365089     -185.037048      -61.881321
 H         -68.772484     -186.458466      -61.126003
 H         -70.284729     -188.763580      -61.095818
 H         -71.794266     -188.659515      -61.565266
 H         -71.475159     -186.034744      -62.053223
 H         -70.991554     -186.631760      -60.455536
