20
 generated by VMD
 C         -63.201920     -172.748642      -55.274990
 N         -62.693462     -173.770477      -55.020447
 H         -61.839893     -171.617432      -58.072613
 H         -63.507942     -171.738922      -55.601818
 C         -62.651989     -170.946381      -58.366005
 C         -62.409851     -169.487244      -58.137459
 C         -63.709496     -171.505295      -59.201733
 C         -63.643501     -168.629562      -58.125137
 C         -64.944481     -170.660248      -59.292751
 C         -64.873993     -169.554565      -58.220222
 H         -61.692001     -169.142517      -58.931099
 H         -61.871235     -169.420700      -57.153851
 H         -63.237846     -171.737595      -60.189106
 H         -64.138184     -172.471451      -58.896061
 H         -63.580799     -168.061981      -58.955986
 H         -63.720695     -168.008911      -57.229954
 H         -65.830315     -171.303314      -59.221939
 H         -64.870872     -170.214951      -60.301899
 H         -65.764221     -168.818314      -58.440277
 H         -64.992645     -170.003235      -57.229870
