20
 generated by VMD
 C         -11.493214      -27.095789       -1.103740
 N         -12.352210      -26.456326       -1.371965
 H         -10.450281      -26.278095       -3.974297
 H          -9.304347      -25.749146       -5.247125
 C          -9.383260      -26.090649       -4.190923
 C          -8.765060      -27.458101       -4.157877
 C          -8.691751      -25.048035       -3.303643
 C          -7.261784      -27.413914       -4.274528
 C          -7.122271      -25.140535       -3.254277
 C          -6.565660      -26.579191       -3.288679
 H          -9.275356      -28.157677       -4.823496
 H          -8.936371      -27.999004       -3.217235
 H          -9.022076      -23.993437       -3.475477
 H          -9.062147      -25.352444       -2.370278
 H          -7.039562      -27.086765       -5.353763
 H          -6.831179      -28.453287       -4.269667
 H          -6.680985      -24.550877       -2.405807
 H          -6.794997      -24.540394       -4.140460
 H          -5.483040      -26.551575       -3.452587
 H          -6.648214      -26.968037       -2.275784
