20
 generated by VMD
 C         -55.359989     -148.737045      -45.238621
 N         -54.710072     -149.051926      -44.357716
 H         -54.590664     -148.219376      -48.814552
 H         -55.950264     -148.544479      -46.124710
 C         -54.391693     -147.216690      -49.139603
 C         -53.150539     -147.045227      -50.001915
 C         -54.958187     -145.979889      -48.521473
 C         -53.328682     -145.896011      -51.116512
 C         -55.178360     -144.833054      -49.525829
 C         -53.888706     -144.570084      -50.421734
 H         -52.690266     -147.968460      -50.477505
 H         -52.481270     -146.704086      -49.217052
 H         -55.988567     -146.467010      -48.277416
 H         -54.440948     -145.721527      -47.564434
 H         -53.840420     -146.268738      -52.003643
 H         -52.267456     -145.796829      -51.436623
 H         -55.277573     -143.912613      -48.966789
 H         -56.083088     -144.915268      -50.280079
 H         -54.153870     -143.743896      -51.099201
 H         -53.023640     -144.343674      -49.732334
