20
 generated by VMD
 C         -21.682270      -66.655373      -16.770452
 N         -20.946987      -66.920578      -15.923332
 H         -24.071293      -64.815521      -17.915026
 H         -22.151114      -66.541023      -17.837347
 C         -24.617434      -65.518852      -18.566662
 C         -24.050331      -65.990456      -19.861677
 C         -25.945925      -66.003616      -18.035576
 C         -24.325338      -67.470261      -20.169106
 C         -25.974768      -67.499969      -18.122976
 C         -25.597103      -67.967789      -19.584846
 H         -23.047003      -65.840843      -19.868395
 H         -24.414919      -65.331146      -20.662691
 H         -25.913811      -65.879364      -16.850286
 H         -26.721594      -65.287621      -18.449345
 H         -23.447756      -68.100441      -19.904264
 H         -24.431463      -67.643867      -21.227621
 H         -26.968512      -67.809914      -17.728064
 H         -25.201731      -67.880508      -17.446609
 H         -25.782446      -69.085503      -19.646957
 H         -26.368309      -67.530586      -20.206070
