20
 generated by VMD
 C         -78.206436     -203.945724      -69.170723
 N         -79.113304     -204.116486      -69.896790
 H         -75.737282     -202.410583      -67.611015
 H         -77.264229     -203.807434      -68.735146
 C         -75.133232     -202.028076      -68.562614
 C         -75.200722     -200.560440      -68.877693
 C         -73.899277     -202.837540      -68.851311
 C         -74.818596     -200.293396      -70.385910
 C         -72.903664     -201.976410      -69.672218
 C         -73.612946     -201.091751      -70.656853
 H         -74.461792     -200.055283      -68.162445
 H         -76.160439     -200.170044      -68.628624
 H         -73.489548     -203.320831      -67.991257
 H         -74.190155     -203.710190      -69.412895
 H         -74.617256     -199.240311      -70.505569
 H         -75.667969     -200.665619      -70.992050
 H         -72.149467     -202.697052      -69.991310
 H         -72.324783     -201.290771      -69.058846
 H         -72.769203     -200.424561      -71.121254
 H         -73.920975     -201.840057      -71.478836
