20
 generated by VMD
 C          -1.047970      -13.411574        0.819252
 N          -0.302710      -13.420925       -0.011089
 H          -4.449398      -13.486610        1.990557
 H          -5.716465      -13.711373        0.715643
 C          -5.214239      -14.179725        1.571653
 C          -6.366136      -14.546142        2.422036
 C          -4.415397      -15.358505        1.074376
 C          -7.276512      -15.581952        1.641314
 C          -5.207519      -16.445473        0.409893
 C          -6.440311      -16.823128        1.212862
 H          -6.936372      -13.783937        2.864982
 H          -6.031997      -15.045710        3.338938
 H          -3.583466      -15.100537        0.423336
 H          -3.884959      -15.777416        1.885820
 H          -7.842943      -15.098130        0.787885
 H          -8.076836      -15.943048        2.332680
 H          -4.594832      -17.372871        0.240414
 H          -5.568321      -16.189327       -0.603052
 H          -7.042964      -17.454704        0.536528
 H          -6.220124      -17.502979        2.035133
