20
 generated by VMD
 C         -47.325310     -138.812775      -45.689392
 N         -46.914722     -138.471298      -46.680248
 H         -50.686390     -138.286469      -44.862064
 H         -47.642231     -139.158203      -44.737492
 C         -51.689735     -138.630753      -45.141815
 C         -51.726730     -139.164932      -46.543732
 C         -52.911739     -138.389297      -44.272106
 C         -52.962364     -140.108215      -46.694233
 C         -53.996532     -139.351700      -44.590183
 C         -54.126709     -139.551559      -46.083675
 H         -50.796398     -139.631653      -46.768581
 H         -51.917377     -138.380615      -47.330574
 H         -52.688686     -138.496292      -43.247917
 H         -53.288536     -137.415756      -44.327442
 H         -52.630878     -141.056503      -46.212509
 H         -53.071384     -140.322418      -47.813068
 H         -54.856655     -138.799713      -44.070530
 H         -53.935551     -140.289886      -44.128548
 H         -54.988689     -140.162216      -46.265667
 H         -54.548702     -138.757050      -46.586193
