20
 generated by VMD
 C         -79.453308     -205.470551      -70.883240
 N         -80.548645     -205.717316      -71.198235
 H         -77.218727     -203.021088      -69.902634
 H         -78.467651     -205.178238      -70.868958
 C         -76.149864     -203.192505      -70.061714
 C         -75.360390     -201.995697      -70.204361
 C         -75.525673     -204.476181      -69.572334
 C         -73.874702     -202.234802      -70.461884
 C         -74.134468     -204.182693      -69.058655
 C         -73.158752     -203.523499      -69.987495
 H         -75.503868     -201.450089      -69.232361
 H         -75.703865     -201.282867      -70.952934
 H         -76.193146     -204.886246      -68.818459
 H         -75.279060     -205.018570      -70.498367
 H         -73.326508     -201.374619      -70.024658
 H         -73.740891     -202.215454      -71.538696
 H         -73.598663     -205.130463      -68.777275
 H         -74.208794     -203.588013      -68.170616
 H         -72.234535     -203.270142      -69.613335
 H         -73.017319     -204.218613      -70.800217
