20
 generated by VMD
 C         -32.506485      -95.842064      -25.526201
 N         -33.176910      -95.540802      -24.601439
 H         -34.082489      -93.982101      -27.574074
 H         -31.932976      -95.916588      -26.432358
 C         -34.371723      -93.744759      -28.547689
 C         -35.786598      -93.622604      -28.873882
 C         -33.406849      -93.391647      -29.585791
 C         -36.138424      -92.270653      -29.640995
 C         -33.698986      -92.125710      -30.296547
 C         -35.171143      -92.124321      -30.823999
 H         -36.263336      -93.514091      -27.869047
 H         -36.327114      -94.341751      -29.374664
 H         -32.385796      -93.430168      -29.158466
 H         -33.397564      -94.208626      -30.289791
 H         -35.978313      -91.385635      -29.145163
 H         -37.199226      -92.360580      -29.927530
 H         -32.974556      -91.912315      -31.134903
 H         -33.619160      -91.438904      -29.465157
 H         -35.488686      -91.077080      -31.209730
 H         -35.304813      -92.899086      -31.671432
