20
 generated by VMD
 C         -15.429620      -47.615215       -6.209078
 N         -15.601012      -46.630619       -5.734400
 H         -16.565760      -47.136536       -9.950417
 H         -15.212198      -46.983223      -11.042225
 C         -16.255783      -46.739002      -10.922926
 C         -16.449059      -45.247154      -10.825285
 C         -17.106699      -47.389854      -11.982290
 C         -16.177620      -44.589638      -12.178518
 C         -16.913979      -46.577751      -13.317509
 C         -17.094982      -45.074425      -13.273333
 H         -15.739479      -44.797951      -10.093445
 H         -17.523359      -45.055393      -10.532722
 H         -16.778435      -48.463371      -12.196950
 H         -18.181841      -47.406509      -11.721592
 H         -15.114196      -44.716969      -12.471115
 H         -16.359743      -43.504192      -12.024508
 H         -17.480694      -47.159588      -14.083887
 H         -15.953004      -46.778656      -13.667192
 H         -16.844940      -44.524593      -14.195588
 H         -18.123659      -44.778393      -13.192302
