20
 generated by VMD
 C         -19.119326      -62.799046      -17.179636
 N         -20.247204      -62.705284      -16.839506
 H         -22.747946      -63.564713      -16.896521
 H         -18.113174      -63.108635      -17.557249
 C         -23.458086      -64.359802      -17.181982
 C         -23.976007      -64.186890      -18.599764
 C         -24.425373      -65.152626      -16.235180
 C         -24.576006      -65.296974      -19.353621
 C         -25.080460      -66.334465      -16.926552
 C         -25.644491      -65.934830      -18.292765
 H         -23.400110      -63.535656      -19.217606
 H         -24.821262      -63.491875      -18.560160
 H         -23.822636      -65.393654      -15.430722
 H         -25.279257      -64.561012      -15.843276
 H         -23.903933      -66.095146      -19.657110
 H         -25.167294      -64.879585      -20.234903
 H         -25.878733      -66.792717      -16.351233
 H         -24.255293      -67.073906      -16.976767
 H         -25.885061      -66.878059      -18.811773
 H         -26.572634      -65.286835      -18.177776
