20
 generated by VMD
 C         -49.069557     -140.850632      -45.377750
 N         -47.906727     -141.112015      -45.234367
 H         -51.172382     -138.675903      -46.252071
 H         -50.127941     -140.768494      -45.570316
 C         -52.122654     -139.294128      -46.295387
 C         -52.681381     -139.332413      -47.631283
 C         -52.825684     -139.850845      -45.136864
 C         -53.268806     -140.709549      -47.840916
 C         -53.586296     -141.157333      -45.470535
 C         -54.336285     -141.033142      -46.763885
 H         -51.903400     -139.062744      -48.320122
 H         -53.470501     -138.508911      -47.609047
 H         -52.073032     -140.120926      -44.366245
 H         -53.521301     -139.246796      -44.618946
 H         -52.502968     -141.458237      -47.756645
 H         -53.656670     -140.780655      -48.804771
 H         -54.363411     -141.409103      -44.700802
 H         -52.965412     -142.145630      -45.362129
 H         -54.816154     -142.032730      -46.826000
 H         -55.209728     -140.238312      -46.719536
