20
 generated by VMD
 C         -40.295822     -118.475418      -34.941998
 N         -39.455345     -117.717613      -35.042294
 H         -43.012512     -117.022568      -36.225067
 H         -41.318859     -118.937759      -34.926449
 C         -43.476425     -116.781158      -37.145893
 C         -42.885555     -117.073853      -38.452866
 C         -44.788879     -116.205681      -37.158184
 C         -43.874973     -117.814644      -39.373913
 C         -45.751759     -116.991859      -38.028397
 C         -45.258106     -117.214706      -39.487339
 H         -41.993793     -117.735672      -38.437523
 H         -42.644054     -116.109009      -38.976852
 H         -45.148769     -116.068024      -36.050076
 H         -44.683270     -115.214920      -37.605259
 H         -43.947990     -118.874290      -39.119701
 H         -43.623085     -117.687973      -40.428188
 H         -46.826530     -116.490585      -37.871571
 H         -45.912575     -117.992378      -37.546432
 H         -45.985641     -117.981857      -39.930611
 H         -45.374889     -116.209122      -40.090775
