20
 generated by VMD
 C         -11.463485      -25.939146       -0.864470
 N         -11.228387      -24.947073       -0.382639
 H          -7.611247      -26.059805       -1.031093
 H          -8.977952      -25.472286       -1.962412
 C          -7.891631      -25.554081       -1.995311
 C          -7.405919      -26.357815       -3.181107
 C          -7.362974      -24.098366       -1.999112
 C          -7.617289      -25.707550       -4.527301
 C          -7.610925      -23.483704       -3.399403
 C          -7.005292      -24.360413       -4.524895
 H          -7.981045      -27.254013       -3.156498
 H          -6.361645      -26.484177       -3.102598
 H          -7.853901      -23.536802       -1.168332
 H          -6.264803      -24.141634       -1.835996
 H          -8.691607      -25.661840       -4.725489
 H          -7.088411      -26.274624       -5.298465
 H          -7.238966      -22.427967       -3.386911
 H          -8.689878      -23.339859       -3.653061
 H          -7.082276      -23.817406       -5.502717
 H          -5.900844      -24.469107       -4.443917
