20
 generated by VMD
 C         -63.257801     -174.419907      -56.771862
 N         -62.520824     -175.101074      -56.167564
 H         -66.531136     -173.146835      -58.323334
 H         -63.947453     -173.718552      -57.229980
 C         -65.625633     -172.502548      -58.579979
 C         -65.678177     -171.079483      -58.337482
 C         -64.717377     -172.836349      -59.616180
 C         -64.399864     -170.379196      -58.192200
 C         -63.349339     -172.389145      -59.452602
 C         -63.292004     -170.864899      -59.176170
 H         -66.216988     -171.113113      -57.473057
 H         -66.374634     -170.615692      -59.167091
 H         -64.688354     -173.997787      -59.615849
 H         -65.157799     -172.522995      -60.611732
 H         -63.891560     -170.580551      -57.164772
 H         -64.453537     -169.243912      -58.290619
 H         -62.714981     -172.731613      -60.268101
 H         -62.764679     -172.839493      -58.604362
 H         -62.317760     -170.469849      -58.850422
 H         -63.524746     -170.286072      -60.171642
