20
 generated by VMD
 C         -45.644302     -123.640961      -35.495251
 N         -46.261169     -124.644363      -35.414806
 H         -44.691635     -121.977966      -38.100521
 H         -45.273834     -122.619141      -35.679165
 C         -44.786240     -121.689835      -39.096481
 C         -43.386242     -121.323616      -39.650589
 C         -45.808132     -120.700798      -39.492638
 C         -43.413006     -121.252129      -41.179146
 C         -45.864395     -120.522461      -41.015930
 C         -44.444401     -120.118782      -41.612877
 H         -42.669132     -122.060532      -39.377419
 H         -42.816090     -120.427856      -39.223957
 H         -46.736927     -121.008507      -38.892902
 H         -45.507362     -119.721870      -39.090374
 H         -43.576172     -122.259605      -41.640297
 H         -42.464104     -121.105278      -41.595139
 H         -46.549358     -119.819611      -41.272709
 H         -46.158035     -121.429672      -41.475437
 H         -44.543053     -120.244820      -42.692253
 H         -44.125759     -119.089958      -41.270428
