20
 generated by VMD
 C         -10.772698      -25.720888       -0.842560
 N         -11.070426      -24.686810       -0.581842
 H          -6.865775      -25.562155       -0.941809
 H          -8.551347      -25.337513       -1.454179
 C          -7.463402      -25.290504       -1.781531
 C          -7.220563      -26.119019       -2.981079
 C          -7.136506      -23.842499       -2.001330
 C          -7.824607      -25.496704       -4.219756
 C          -7.803884      -23.203527       -3.285973
 C          -7.440586      -24.118273       -4.474119
 H          -7.718972      -27.117481       -2.839725
 H          -6.147828      -26.481260       -3.087099
 H          -7.527817      -23.313564       -1.103040
 H          -6.065517      -23.706196       -1.871004
 H          -8.958995      -25.551653       -4.208309
 H          -7.624712      -26.172012       -5.103755
 H          -7.438099      -22.219664       -3.516334
 H          -8.877899      -23.166531       -3.095639
 H          -7.990581      -23.801931       -5.358595
 H          -6.411747      -23.931194       -4.672657
