20
 generated by VMD
 C         -63.248417     -174.432938      -56.685837
 N         -62.411495     -174.985977      -56.116566
 H         -66.523170     -173.142334      -58.299454
 H         -64.007805     -173.924850      -57.264606
 C         -65.665550     -172.450241      -58.590534
 C         -65.677841     -170.910355      -58.127403
 C         -64.625999     -172.905777      -59.715393
 C         -64.257919     -170.335602      -58.134155
 C         -63.310493     -172.267563      -59.439354
 C         -63.472126     -170.800446      -59.343609
 H         -66.245964     -170.869156      -57.073250
 H         -66.229156     -170.405930      -58.823647
 H         -64.448517     -173.900650      -59.583012
 H         -65.013214     -172.543137      -60.645012
 H         -63.746372     -170.700073      -57.269043
 H         -64.205856     -169.265549      -58.044743
 H         -62.621540     -172.570236      -60.233185
 H         -62.870361     -172.557632      -58.472095
 H         -62.493198     -170.346542      -59.164589
 H         -63.927952     -170.401276      -60.177303
