20
 generated by VMD
 C          -7.097579      -23.457756        1.941452
 N          -7.315225      -22.357431        1.933274
 H          -8.709787      -23.403696       -1.107071
 H          -9.329139      -22.427029       -2.482453
 C          -8.412564      -22.717592       -1.957405
 C          -7.535730      -23.430815       -2.919547
 C          -7.719177      -21.573206       -1.346042
 C          -6.969920      -22.497526       -3.970722
 C          -7.194228      -20.547836       -2.351568
 C          -6.295935      -21.250259       -3.397470
 H          -8.244968      -24.233570       -3.313992
 H          -6.625249      -23.817514       -2.401841
 H          -8.269043      -20.991983       -0.555142
 H          -6.912481      -22.025967       -0.754944
 H          -7.743701      -22.137510       -4.603958
 H          -6.326825      -23.031176       -4.671406
 H          -6.693602      -19.645943       -1.928936
 H          -8.021899      -20.077795       -2.925564
 H          -5.990454      -20.531572       -4.211609
 H          -5.332094      -21.524084       -2.858018
