20
 generated by VMD
 C         -25.606043      -71.234833      -17.106300
 N         -25.393435      -71.203995      -15.965274
 H         -24.289530      -69.049141      -18.539938
 H         -25.516941      -71.243782      -18.207331
 C         -24.609608      -69.029655      -19.553343
 C         -23.837105      -69.946045      -20.616751
 C         -25.847464      -68.277115      -19.860620
 C         -24.861448      -70.849556      -21.244806
 C         -26.783434      -69.261131      -20.547253
 C         -26.046305      -70.058220      -21.786255
 H         -22.957367      -70.339821      -20.002111
 H         -23.524424      -69.257111      -21.387442
 H         -26.323566      -67.800804      -18.981667
 H         -25.625286      -67.358505      -20.392666
 H         -25.273502      -71.448212      -20.473341
 H         -24.416683      -71.501869      -22.022697
 H         -27.719261      -68.850281      -20.817764
 H         -26.951132      -69.981270      -19.792948
 H         -26.801630      -70.702911      -22.279072
 H         -25.832474      -69.260895      -22.526941
