20
 generated by VMD
 C          -2.569874      -16.708038        2.779191
 N          -1.853358      -17.139669        2.039285
 H          -4.839756      -16.106735        0.528922
 H          -4.430040      -17.346827       -0.588874
 C          -5.287435      -16.862082       -0.100250
 C          -6.284356      -16.277222       -1.072064
 C          -5.848383      -17.908953        0.867012
 C          -7.274559      -17.244120       -1.707328
 C          -6.714994      -18.899841        0.112378
 C          -7.835308      -18.213493       -0.680907
 H          -5.741187      -15.712039       -1.873405
 H          -6.930833      -15.571706       -0.596894
 H          -5.049980      -18.471550        1.382377
 H          -6.504119      -17.414961        1.729568
 H          -6.713296      -17.771049       -2.462157
 H          -8.085600      -16.695534       -2.077391
 H          -7.184112      -19.688335        0.769069
 H          -6.063884      -19.399191       -0.609703
 H          -8.472464      -18.977228       -1.142176
 H          -8.456043      -17.599453        0.033934
