20
 generated by VMD
 C         -29.729570      -89.676147      -25.520452
 N         -29.186958      -90.669716      -25.709551
 H         -32.155212      -91.663277      -27.492239
 H         -30.216047      -88.787994      -25.162592
 C         -32.981777      -90.947685      -27.598213
 C         -34.406940      -91.360229      -27.198009
 C         -32.732052      -89.591995      -28.181791
 C         -35.432514      -90.257271      -27.207352
 C         -33.687218      -88.490906      -27.925983
 C         -35.150238      -89.032234      -27.969824
 H         -34.351536      -91.926605      -26.198023
 H         -34.788006      -92.067131      -27.941284
 H         -31.772726      -89.173279      -27.896790
 H         -32.548016      -89.846184      -29.244366
 H         -35.565983      -90.010338      -26.106359
 H         -36.360397      -90.859406      -27.575304
 H         -33.623421      -87.663261      -28.686827
 H         -33.488792      -88.048546      -26.908520
 H         -35.757927      -88.139526      -27.712275
 H         -35.291733      -89.204834      -28.988554
