20
 generated by VMD
 C         -29.542171      -74.692833      -19.845211
 N         -30.591694      -74.571007      -20.264362
 H         -26.111713      -73.699715      -18.911079
 H         -28.548851      -74.436455      -19.524405
 C         -25.788340      -73.524406      -19.969866
 C         -25.404276      -74.720840      -20.808823
 C         -25.354660      -72.209160      -20.490042
 C         -26.069658      -74.669586      -22.079115
 C         -26.126118      -72.024536      -21.866045
 C         -25.676399      -73.301773      -22.703373
 H         -25.701435      -75.606834      -20.201416
 H         -24.252720      -74.800964      -20.926786
 H         -25.749941      -71.337990      -20.035053
 H         -24.291044      -72.065102      -20.634481
 H         -27.188732      -74.729576      -22.111933
 H         -25.594839      -75.489952      -22.648842
 H         -25.790487      -71.164154      -22.370823
 H         -27.219860      -72.156906      -21.766624
 H         -26.183216      -73.263687      -23.631931
 H         -24.606432      -73.415718      -22.958010
