20
 generated by VMD
 C          -1.632173       -9.415471       -0.095971
 N          -2.571494       -8.975190        0.356304
 H          -2.176258      -10.776952        2.499023
 H          -2.220892      -11.749429        3.862282
 C          -2.796285      -11.574371        2.944759
 C          -2.722017      -12.789505        2.131822
 C          -4.265737      -11.319908        3.348355
 C          -3.319261      -14.058904        2.718792
 C          -4.922200      -12.564112        3.948920
 C          -4.776769      -13.739734        3.021629
 H          -1.714680      -13.027020        1.844894
 H          -3.187327      -12.611514        1.130788
 H          -4.278248      -10.510395        4.046509
 H          -4.770362      -11.070586        2.386447
 H          -2.759068      -14.527368        3.533735
 H          -3.330346      -14.849954        1.967579
 H          -5.988605      -12.303393        4.136033
 H          -4.472894      -12.873221        4.956928
 H          -5.301575      -14.537137        3.519562
 H          -5.341732      -13.545732        2.098832
