20
 generated by VMD
 C         -63.826218     -174.948120      -55.958664
 N         -62.863056     -175.363663      -56.508446
 H         -66.205910     -173.560089      -58.575966
 H         -64.710030     -174.570099      -55.461281
 C         -65.636253     -172.717926      -58.946251
 C         -65.688980     -171.294434      -58.288830
 C         -64.433235     -173.063110      -59.907669
 C         -64.339424     -170.666962      -58.216343
 C         -63.195724     -172.246674      -59.671303
 C         -63.488541     -170.850800      -59.438530
 H         -66.131607     -171.309647      -57.196373
 H         -66.356522     -170.769318      -58.854595
 H         -64.268829     -174.140839      -60.012329
 H         -64.817474     -172.861557      -60.943050
 H         -63.764122     -170.978683      -57.368984
 H         -64.434998     -169.592850      -58.183075
 H         -62.572609     -172.372543      -60.585693
 H         -62.657162     -172.608490      -58.784569
 H         -62.574657     -170.284622      -59.389294
 H         -64.055893     -170.456314      -60.239292
