20
 generated by VMD
 C         -57.780632     -150.667114      -48.629456
 N         -58.213566     -151.787903      -48.565571
 H         -55.046745     -149.252808      -47.460377
 H         -57.205395     -149.707947      -48.654072
 C         -54.679932     -148.980148      -48.441204
 C         -53.863663     -149.913574      -49.299252
 C         -54.696102     -147.518066      -48.801994
 C         -54.301189     -149.614960      -50.814560
 C         -55.072960     -147.296753      -50.308529
 C         -54.199146     -148.098816      -51.311115
 H         -54.054459     -150.855453      -48.860729
 H         -52.879200     -149.670013      -49.236355
 H         -55.617249     -147.016464      -48.373528
 H         -53.793629     -147.017975      -48.441444
 H         -55.362247     -149.929977      -50.801849
 H         -53.809422     -150.215866      -51.567711
 H         -55.022934     -146.150482      -50.707306
 H         -56.141678     -147.430801      -50.461185
 H         -54.382511     -147.920563      -52.377190
 H         -53.150181     -147.705780      -51.152924
