20
 generated by VMD
 C         -32.044479      -92.993240      -25.968475
 N         -32.431133      -94.026642      -25.527927
 H         -33.768227      -94.917854      -28.818827
 H         -31.828222      -92.014465      -26.331884
 C         -34.087067      -93.848701      -28.788614
 C         -35.371979      -93.305077      -28.169533
 C         -33.610989      -93.056007      -29.924286
 C         -35.447052      -91.788177      -27.993223
 C         -33.612095      -91.556252      -29.700661
 C         -34.969433      -91.041389      -29.242634
 H         -35.346966      -93.818901      -27.156937
 H         -36.116558      -93.726952      -28.840708
 H         -32.664440      -93.510422      -30.255386
 H         -34.220264      -93.276009      -30.846560
 H         -34.959343      -91.352310      -27.060795
 H         -36.569786      -91.583290      -27.780952
 H         -33.378490      -91.051949      -30.701912
 H         -32.801895      -91.238503      -29.022600
 H         -35.031376      -89.959015      -29.099983
 H         -35.538124      -91.290733      -30.114923
