20
 generated by VMD
 C         -49.582207     -133.106506      -47.100235
 N         -49.370945     -132.028580      -47.015980
 H         -47.706665     -134.446228      -43.909531
 H         -50.078239     -134.004761      -47.295242
 C         -48.698288     -134.716492      -43.665745
 C         -49.230923     -136.018188      -44.056416
 C         -49.693508     -133.691650      -43.115608
 C         -50.015945     -136.641342      -42.862560
 C         -50.475498     -134.283844      -42.036217
 C         -51.041157     -135.668549      -42.312889
 H         -48.479038     -136.704269      -44.364136
 H         -49.943604     -135.856079      -44.896011
 H         -49.351864     -132.712585      -42.738598
 H         -50.442223     -133.449524      -44.003063
 H         -49.374336     -136.977707      -42.014824
 H         -50.547604     -137.514938      -43.274525
 H         -51.218517     -133.585526      -41.685505
 H         -49.764423     -134.395752      -41.275913
 H         -51.551853     -135.962906      -41.419380
 H         -51.927277     -135.530579      -42.988735
