20
 generated by VMD
 C         -25.841465      -71.824776      -17.111866
 N         -26.663084      -72.449600      -16.591833
 H         -24.249567      -68.940865      -18.756424
 H         -25.142790      -71.112038      -17.581154
 C         -24.648417      -69.424919      -19.673212
 C         -24.138115      -70.694458      -20.300499
 C         -25.774147      -68.742195      -20.399189
 C         -25.123955      -71.557785      -21.162115
 C         -26.772436      -69.640709      -21.243055
 C         -26.038679      -70.723000      -22.122744
 H         -23.573603      -71.318367      -19.586081
 H         -23.290573      -70.220978      -20.878492
 H         -26.407356      -68.209343      -19.660730
 H         -25.382923      -68.012108      -21.017401
 H         -25.883303      -72.080177      -20.610701
 H         -24.526186      -72.296928      -21.799826
 H         -27.321201      -68.902473      -21.760870
 H         -27.334410      -70.141548      -20.508751
 H         -26.848587      -71.156929      -22.790598
 H         -25.305330      -70.280907      -22.847225
