20
 generated by VMD
 C         -50.692200     -129.135452      -44.371708
 N         -50.928349     -130.224106      -44.349995
 H         -49.132397     -128.270538      -41.372890
 H         -50.343811     -128.116196      -44.460140
 C         -48.102097     -128.449890      -41.210167
 C         -47.831932     -129.927429      -41.088585
 C         -47.054890     -127.478233      -40.759811
 C         -46.399727     -130.331024      -41.445953
 C         -45.714466     -127.888428      -41.398525
 C         -45.335602     -129.304596      -41.004036
 H         -48.527260     -130.406738      -41.678459
 H         -47.931141     -130.219757      -39.968712
 H         -47.350746     -126.407875      -41.207020
 H         -47.014481     -127.319069      -39.716202
 H         -46.330940     -130.407242      -42.537376
 H         -46.041767     -131.279617      -41.032738
 H         -44.981899     -127.065353      -41.124851
 H         -46.014847     -127.726074      -42.516972
 H         -44.428020     -129.594330      -41.578564
 H         -45.182564     -129.352631      -39.942017
