20
 generated by VMD
 C         -19.266888      -59.792213      -17.054020
 N         -18.893021      -60.772709      -16.568419
 H         -22.886232      -61.310410      -17.806519
 H         -19.559177      -59.003597      -17.632927
 C         -23.549646      -62.015690      -17.381493
 C         -24.317968      -62.962212      -18.201052
 C         -23.244507      -62.366852      -15.928908
 C         -23.934513      -64.377769      -17.859663
 C         -23.396608      -63.882347      -15.381288
 C         -24.031685      -64.779533      -16.389687
 H         -24.359318      -62.688820      -19.241251
 H         -25.381268      -62.856480      -18.013638
 H         -22.267805      -61.984989      -15.709748
 H         -23.819168      -61.755573      -15.262984
 H         -23.039888      -64.532707      -18.461855
 H         -24.656298      -64.987541      -18.383465
 H         -24.225824      -63.828754      -14.614191
 H         -22.375109      -64.321014      -15.119639
 H         -23.740564      -65.793297      -16.236553
 H         -25.087053      -64.770294      -16.143665
