20
 generated by VMD
 C         -78.936737     -207.337479      -75.276909
 N         -79.907150     -206.967819      -75.857025
 H         -77.744972     -209.241714      -73.428085
 H         -77.969482     -207.575912      -74.854263
 C         -77.744087     -209.166138      -72.287247
 C         -76.328613     -208.503448      -71.846703
 C         -78.341309     -210.298431      -71.426559
 C         -76.585533     -208.140030      -70.318352
 C         -78.188057     -210.021973      -69.970268
 C         -76.827271     -209.392685      -69.515038
 H         -76.314850     -207.502441      -72.302826
 H         -75.411850     -209.072083      -72.100784
 H         -79.425964     -210.410202      -71.672424
 H         -77.937691     -211.276337      -71.779900
 H         -77.417755     -207.492874      -70.220650
 H         -75.754501     -207.734039      -69.791534
 H         -78.287766     -211.040436      -69.484222
 H         -79.012589     -209.469482      -69.596436
 H         -76.837685     -209.109436      -68.434998
 H         -76.104034     -210.253021      -69.609299
