20
 generated by VMD
 C         -28.934872      -73.918488      -19.494793
 N         -29.968296      -74.446472      -19.537457
 H         -25.723396      -73.481453      -18.873617
 H         -27.882984      -73.593269      -19.338703
 C         -25.746531      -73.227951      -19.910427
 C         -25.342979      -74.366844      -20.770199
 C         -25.754124      -71.793686      -20.449902
 C         -25.853762      -74.253555      -22.140511
 C         -26.280661      -71.680717      -21.908747
 C         -25.482441      -72.894035      -22.635576
 H         -25.747913      -75.265846      -20.296442
 H         -24.192392      -74.475594      -20.721144
 H         -26.373983      -71.089729      -19.881496
 H         -24.721510      -71.449867      -20.282171
 H         -26.902880      -74.550713      -22.201916
 H         -25.384556      -74.989288      -22.798948
 H         -26.021542      -70.776680      -22.401615
 H         -27.353594      -71.889336      -22.011230
 H         -25.883512      -72.878479      -23.662012
 H         -24.367048      -72.724854      -22.663361
