20
 generated by VMD
 C          -1.957297      -15.725509        1.831829
 N          -1.711824      -15.295588        2.828682
 H          -3.954426      -16.294857        0.144882
 H          -4.683246      -17.276289       -1.165671
 C          -4.894534      -16.719671       -0.220735
 C          -6.036408      -15.721226       -0.498735
 C          -5.346057      -17.820290        0.755779
 C          -7.359681      -16.453793       -0.911496
 C          -6.552997      -18.546349        0.286081
 C          -7.738925      -17.590803        0.008097
 H          -5.796864      -14.925672       -1.282604
 H          -6.243402      -15.258834        0.455499
 H          -4.454591      -18.602051        0.820335
 H          -5.514513      -17.313997        1.794614
 H          -7.287308      -16.737411       -1.944136
 H          -8.123765      -15.748335       -0.831310
 H          -6.885192      -19.296904        1.014993
 H          -6.409077      -19.094137       -0.617678
 H          -8.499118      -18.236292       -0.448762
 H          -8.192492      -17.302492        0.994284
