20
 generated by VMD
 C         -49.824032     -127.749573      -39.068996
 N         -49.542412     -126.671547      -38.732327
 H         -47.055573     -125.716217      -40.377483
 H         -49.782864     -128.725830      -39.502533
 C         -46.224319     -125.212570      -40.695530
 C         -44.935379     -125.772758      -40.562122
 C         -46.462475     -123.827042      -41.126137
 C         -43.662468     -124.918869      -40.846317
 C         -45.193542     -122.963745      -41.524036
 C         -44.031105     -123.466515      -40.711246
 H         -44.871494     -126.750221      -41.034737
 H         -44.811493     -125.969727      -39.371109
 H         -47.085861     -123.764107      -41.990936
 H         -47.137188     -123.409500      -40.354580
 H         -43.386486     -125.166969      -41.912220
 H         -42.782772     -125.284286      -40.250202
 H         -45.463512     -121.950554      -41.347633
 H         -44.988216     -123.026970      -42.572395
 H         -43.071835     -122.924164      -40.823917
 H         -44.287495     -123.302658      -39.699402
