20
 generated by VMD
 C         -14.221061      -28.131729       -3.247264
 N         -14.053848      -27.201992       -3.836146
 H         -10.360511      -28.407707       -2.764474
 H          -9.850485      -27.305622       -4.185084
 C          -9.509534      -28.029818       -3.388867
 C          -8.887467      -29.238167       -4.212880
 C          -8.346158      -27.487938       -2.471529
 C          -7.800217      -28.637478       -5.102006
 C          -7.195280      -26.917807       -3.371907
 C          -6.629296      -28.010225       -4.218709
 H          -9.666455      -29.751141       -4.861609
 H          -8.675853      -30.025059       -3.489407
 H          -8.782329      -26.679699       -1.874532
 H          -7.948991      -28.246466       -1.827512
 H          -8.107639      -27.899700       -5.873913
 H          -7.334567      -29.449099       -5.760111
 H          -6.443007      -26.537930       -2.683851
 H          -7.501850      -26.008438       -3.942254
 H          -5.905744      -27.522741       -4.908651
 H          -6.119923      -28.792185       -3.674761
