20
 generated by VMD
 C         -21.337866      -65.375824      -17.159723
 N         -20.704536      -65.765152      -16.283657
 H         -24.658300      -63.491257      -18.029688
 H         -21.919373      -65.060028      -17.937712
 C         -24.740248      -64.644554      -18.246815
 C         -24.469791      -65.106163      -19.664234
 C         -25.022339      -65.514793      -17.080141
 C         -24.298012      -66.617516      -19.891808
 C         -24.891478      -66.970367      -17.318357
 C         -25.205357      -67.349228      -18.936968
 H         -23.517029      -64.634087      -20.099388
 H         -25.249790      -64.813866      -20.322668
 H         -24.425383      -65.289330      -16.284716
 H         -26.062744      -65.318085      -16.837755
 H         -23.187574      -66.918610      -19.683075
 H         -24.460056      -66.764931      -20.985504
 H         -25.617050      -67.612312      -16.708517
 H         -23.857285      -67.251213      -17.001736
 H         -24.924585      -68.457886      -18.946220
 H         -26.266417      -67.344360      -19.158905
