20
 generated by VMD
 C         -50.843777     -129.660217      -46.023605
 N         -50.869709     -130.435715      -45.198177
 H         -47.727589     -131.416061      -44.251083
 H         -50.761166     -129.003891      -46.913105
 C         -48.017624     -131.525192      -43.206959
 C         -48.313171     -132.735962      -42.416012
 C         -47.916210     -130.158279      -42.457829
 C         -47.510677     -132.840836      -41.135120
 C         -47.182144     -130.315979      -41.153698
 C         -47.562046     -131.572250      -40.403938
 H         -48.117828     -133.768173      -42.879635
 H         -49.328678     -132.709549      -42.222885
 H         -47.459461     -129.423096      -43.056740
 H         -48.997818     -129.913895      -42.319710
 H         -46.436462     -133.089462      -41.348076
 H         -47.820614     -133.639572      -40.458546
 H         -47.381550     -129.369720      -40.572014
 H         -46.156006     -130.201248      -41.407616
 H         -46.857300     -131.512146      -39.586754
 H         -48.546677     -131.332031      -40.050621
