20
 generated by VMD
 C         -57.556587     -165.871964      -56.571526
 N         -57.966080     -166.776825      -56.055180
 H         -60.554081     -165.040421      -54.423767
 H         -57.052433     -165.099243      -57.162567
 C         -61.572227     -165.295654      -54.768253
 C         -61.869530     -166.648483      -55.396236
 C         -62.403870     -164.171051      -55.456245
 C         -63.295227     -167.014694      -55.799709
 C         -63.859287     -164.540405      -55.716766
 C         -63.972160     -165.850342      -56.467754
 H         -61.433285     -167.454269      -54.673225
 H         -61.136433     -166.851227      -56.242416
 H         -62.536560     -163.337662      -54.828815
 H         -61.883987     -163.858780      -56.367294
 H         -63.717175     -167.248306      -54.876457
 H         -63.290276     -167.856506      -56.487049
 H         -64.455605     -163.642899      -56.331947
 H         -64.444168     -164.483429      -54.756596
 H         -65.082390     -166.025146      -56.688980
 H         -63.447853     -165.713043      -57.453537
