20
 generated by VMD
 C         -45.799904     -123.812408      -35.566051
 N         -46.396301     -124.774475      -35.453819
 H         -44.736347     -122.350708      -38.392078
 H         -45.418194     -122.869331      -35.759216
 C         -44.602501     -121.452858      -38.963509
 C         -43.324192     -121.432007      -39.697857
 C         -45.891216     -120.769333      -39.553291
 C         -43.434296     -121.353004      -41.196239
 C         -45.876762     -120.580765      -41.030670
 C         -44.500248     -120.308472      -41.687561
 H         -42.763031     -122.338715      -39.447216
 H         -42.576294     -120.635139      -39.295055
 H         -46.824989     -121.239433      -39.217293
 H         -45.663002     -119.747292      -39.122379
 H         -43.712814     -122.393738      -41.572002
 H         -42.400459     -121.285706      -41.739258
 H         -46.702248     -119.770844      -41.350662
 H         -46.226105     -121.605865      -41.412773
 H         -44.600147     -120.341103      -42.827385
 H         -44.185200     -119.303467      -41.372532
