20
 generated by VMD
 C         -40.959915     -101.066727      -32.875790
 N         -41.998146     -101.454819      -32.621780
 H         -38.550457     -102.847908      -32.460957
 H         -39.896420     -100.662155      -32.972485
 C         -37.557049     -102.776794      -32.001610
 C         -36.302494     -102.848282      -32.937218
 C         -37.393742     -102.783051      -30.568808
 C         -35.320694     -101.825905      -32.338112
 C         -36.185196     -102.137039      -29.974524
 C         -34.875282     -102.200966      -30.867058
 H         -36.581726     -102.645180      -33.946320
 H         -36.014297     -103.899529      -32.828808
 H         -38.301144     -102.145363      -30.178387
 H         -37.515152     -103.775070      -30.238546
 H         -35.763470     -100.754387      -32.267075
 H         -34.502014     -101.823692      -33.079277
 H         -35.962078     -102.446877      -28.944942
 H         -36.541649     -101.060616      -29.853157
 H         -34.119812     -101.459991      -30.432701
 H         -34.266758     -103.150581      -30.938292
