20
 generated by VMD
 C         -13.824885      -42.869816       -6.026566
 N         -12.890910      -43.368542       -6.385131
 H         -14.831470      -45.126659       -8.959465
 H         -14.270140      -43.870876       -9.957594
 C         -15.145136      -44.505013       -9.746252
 C         -16.359013      -43.670979       -9.441011
 C         -15.438388      -45.288891      -11.039435
 C         -16.956194      -42.782059      -10.573647
 C         -15.896738      -44.351151      -12.174765
 C         -17.156107      -43.497452      -11.909495
 H         -16.005836      -42.997829       -8.663853
 H         -17.232918      -44.289833       -9.048635
 H         -14.559427      -45.829399      -11.368524
 H         -16.190287      -46.061100      -10.761670
 H         -16.250824      -41.969002      -10.775277
 H         -17.897511      -42.318336      -10.255743
 H         -16.027031      -44.761269      -13.157457
 H         -15.035598      -43.595104      -12.273834
 H         -17.301050      -42.750324      -12.635156
 H         -18.024155      -44.138680      -11.944277
