20
 generated by VMD
 C         -67.975761     -189.599915      -67.043510
 N         -66.974388     -189.086884      -67.257126
 H         -68.711906     -188.833069      -63.456253
 H         -68.884567     -190.186386      -66.783234
 C         -69.790710     -188.725296      -63.627949
 C         -70.531914     -190.019028      -63.849140
 C         -70.398788     -187.552048      -63.096218
 C         -72.020912     -189.839294      -64.197960
 C         -71.838219     -187.382095      -63.692772
 C         -72.761505     -188.612091      -63.525436
 H         -70.417656     -190.547638      -62.809200
 H         -70.078796     -190.619293      -64.688004
 H         -70.353241     -187.628998      -61.994522
 H         -69.723785     -186.754974      -63.318909
 H         -72.538330     -190.712311      -63.923244
 H         -72.169991     -189.759705      -65.306984
 H         -71.788666     -187.045868      -64.790344
 H         -72.351875     -186.498886      -63.189045
 H         -72.768127     -188.802460      -62.361820
 H         -73.770973     -188.583633      -63.880112
