20
 generated by VMD
 C         -12.373061      -31.952856       -8.795864
 N         -12.630872      -30.900640       -8.628379
 H         -10.587139      -34.823032       -7.518400
 H         -11.544839      -33.733170       -6.586524
 C         -11.192938      -34.787750       -6.614577
 C         -10.350744      -35.085785       -5.323525
 C         -12.402918      -35.616798       -6.746748
 C         -11.195024      -35.221352       -4.044880
 C         -13.181890      -35.649059       -5.522368
 C         -12.377859      -36.097694       -4.304534
 H          -9.453868      -34.409515       -5.251451
 H          -9.897031      -36.051476       -5.478124
 H         -12.916704      -35.367851       -7.680794
 H         -12.024974      -36.637718       -6.946835
 H         -11.557886      -34.258411       -3.626769
 H         -10.492952      -35.557026       -3.207259
 H         -14.023488      -36.452019       -5.662323
 H         -13.726074      -34.737476       -5.306296
 H         -13.024038      -36.086506       -3.417545
 H         -12.070130      -37.106991       -4.497259
