20
 generated by VMD
 C         -19.455620      -60.259254      -17.157776
 N         -19.175289      -60.774158      -16.192389
 H         -22.181458      -62.288586      -17.736374
 H         -19.741585      -59.967625      -18.245062
 C         -23.244257      -62.320156      -17.475758
 C         -24.146040      -63.096344      -18.396202
 C         -23.361128      -62.521709      -15.982601
 C         -24.301010      -64.510536      -17.939295
 C         -23.186283      -64.020050      -15.745683
 C         -24.317219      -64.753815      -16.394695
 H         -23.636707      -63.026409      -19.356207
 H         -25.117325      -62.595066      -18.297108
 H         -22.579741      -61.907906      -15.527452
 H         -24.368668      -62.319717      -15.610725
 H         -23.455721      -65.096695      -18.201988
 H         -25.171795      -65.028839      -18.371223
 H         -23.238138      -64.173378      -14.712510
 H         -22.226166      -64.362984      -16.061523
 H         -24.359356      -65.861198      -16.187960
 H         -25.277405      -64.394821      -15.954672
