20
 generated by VMD
 C         -80.161575     -206.887405      -74.042763
 N         -80.535080     -206.453674      -75.067398
 H         -76.915268     -207.328354      -73.078705
 H         -80.041496     -207.413803      -73.043587
 C         -76.717247     -207.428833      -71.959183
 C         -75.479729     -206.885941      -71.403625
 C         -77.208679     -208.567078      -71.139648
 C         -75.553848     -206.472443      -69.958122
 C         -77.238609     -208.272797      -69.555374
 C         -75.802292     -207.683014      -69.111153
 H         -75.301224     -205.965897      -72.003677
 H         -74.676147     -207.618744      -71.605606
 H         -78.268478     -208.772873      -71.342033
 H         -76.652435     -209.463043      -71.314171
 H         -76.202431     -205.613434      -69.678322
 H         -74.534698     -206.050797      -69.804596
 H         -77.323738     -209.211685      -68.959595
 H         -78.072250     -207.647049      -69.297104
 H         -75.669006     -207.612610      -68.040123
 H         -74.976997     -208.431641      -69.563171
