20
 generated by VMD
 C         -47.577343     -136.673431      -45.907772
 N         -47.021767     -136.207611      -46.822628
 H         -50.613060     -135.778885      -45.559826
 H         -48.331825     -137.105347      -45.261887
 C         -51.370014     -136.544296      -45.246597
 C         -51.886108     -137.581696      -46.174156
 C         -51.904434     -136.445175      -43.810474
 C         -52.014160     -138.909775      -45.461884
 C         -52.116879     -137.799713      -43.172913
 C         -52.773727     -138.863327      -44.125359
 H         -51.127831     -137.672668      -47.032372
 H         -52.798977     -137.257141      -46.586819
 H         -51.278114     -135.733505      -43.287937
 H         -52.879158     -135.982208      -43.998875
 H         -51.100983     -139.529968      -45.343525
 H         -52.567303     -139.541443      -46.109798
 H         -52.601395     -137.757843      -42.156342
 H         -51.212589     -138.269379      -42.906887
 H         -52.990917     -139.786942      -43.692814
 H         -53.777786     -138.597443      -44.445683
