20
 generated by VMD
 C         -69.827438     -180.551788      -61.406136
 N         -69.128128     -180.729202      -62.340805
 H         -66.841583     -179.985229      -59.257927
 H         -70.335533     -180.413116      -60.488426
 C         -66.241730     -179.242279      -59.707985
 C         -65.547089     -179.474442      -61.025406
 C         -65.816010     -178.047104      -58.864159
 C         -65.161926     -178.150177      -61.703323
 C         -65.693085     -176.774277      -59.681767
 C         -64.743996     -177.054245      -60.791756
 H         -66.204224     -180.062851      -61.732533
 H         -64.586716     -180.019867      -60.885998
 H         -66.396576     -177.973312      -57.952068
 H         -64.749557     -178.295898      -58.558582
 H         -66.082359     -177.960449      -62.266136
 H         -64.496552     -178.359589      -62.565224
 H         -65.310684     -175.856613      -59.181194
 H         -66.658440     -176.622528      -60.160885
 H         -64.759293     -176.185623      -61.518906
 H         -63.719654     -177.211136      -60.470795
