20
 generated by VMD
 C         -60.363518     -153.308929      -51.969746
 N         -60.330441     -152.411987      -51.314777
 H         -57.537815     -153.727417      -50.028267
 H         -60.393272     -154.195496      -52.579098
 C         -56.607807     -153.193588      -50.222881
 C         -55.207684     -153.466476      -49.576893
 C         -56.773014     -151.826996      -50.815807
 C         -53.918354     -152.827911      -50.099957
 C         -55.445038     -151.542236      -51.557095
 C         -54.215530     -151.375916      -50.711636
 H         -54.960426     -154.552292      -49.344780
 H         -55.407051     -153.170319      -48.541275
 H         -57.568626     -151.880600      -51.597713
 H         -57.010899     -151.105026      -50.040760
 H         -53.601421     -153.523743      -50.876595
 H         -53.031017     -152.828003      -49.449020
 H         -55.532177     -150.453094      -52.021923
 H         -55.290909     -152.344437      -52.328743
 H         -53.294006     -150.955902      -51.098412
 H         -54.390297     -150.741928      -49.854862
