20
 generated by VMD
 C         -27.460920      -86.560318      -26.391970
 N         -28.493317      -86.300781      -26.869799
 H         -31.018707      -86.365486      -25.207756
 H         -26.501652      -86.969246      -25.998005
 C         -31.979641      -86.690163      -25.581392
 C         -32.783192      -87.340866      -24.524141
 C         -32.012840      -87.293381      -26.896151
 C         -34.209755      -87.397186      -25.014215
 C         -33.561150      -87.520645      -27.404650
 C         -34.389492      -88.276558      -26.269243
 H         -32.562172      -86.866158      -23.521721
 H         -32.480251      -88.311028      -24.373995
 H         -31.431026      -86.727875      -27.649105
 H         -31.511681      -88.291977      -26.863632
 H         -34.538815      -86.323914      -25.251535
 H         -34.907619      -87.940872      -24.198408
 H         -33.569725      -88.014534      -28.333895
 H         -33.938393      -86.490417      -27.460405
 H         -35.425919      -88.381546      -26.552011
 H         -34.048176      -89.266869      -26.267023
