20
 generated by VMD
 C         -23.617289      -69.251137      -16.622940
 N         -23.906496      -69.909180      -15.718469
 H         -23.772770      -66.262360      -19.102676
 H         -23.532038      -68.674210      -17.461458
 C         -24.452692      -67.173729      -19.423319
 C         -23.891699      -68.029373      -20.641960
 C         -25.902109      -67.243027      -19.322626
 C         -24.573467      -69.446495      -20.813381
 C         -26.418724      -68.703850      -19.444023
 C         -26.154217      -69.386734      -20.691856
 H         -22.864241      -68.139954      -20.420732
 H         -23.916599      -67.403511      -21.511276
 H         -26.395918      -66.994926      -18.396036
 H         -26.366680      -66.565506      -20.043026
 H         -24.157293      -70.044868      -19.936975
 H         -24.248661      -70.000969      -21.757334
 H         -27.550432      -68.801865      -19.185318
 H         -25.981915      -69.322090      -18.538774
 H         -26.374687      -70.443146      -20.689436
 H         -26.470940      -68.864677      -21.587332
