20
 generated by VMD
 C         -23.569296      -54.914936      -14.905499
 N         -22.984505      -54.523399      -15.793831
 H         -20.241720      -54.632011      -15.528737
 H         -24.549421      -55.414181      -14.387882
 C         -19.514599      -55.185413      -14.861228
 C         -18.925934      -54.671776      -13.549590
 C         -18.982956      -56.521030      -15.381382
 C         -18.856205      -55.868107      -12.494775
 C         -19.052422      -57.621700      -14.346951
 C         -18.520283      -57.227386      -12.997196
 H         -19.507032      -53.865833      -13.068564
 H         -17.989216      -54.190250      -13.712942
 H         -19.565794      -56.913589      -16.241886
 H         -18.061460      -56.275955      -15.774651
 H         -19.871456      -55.928825      -12.093914
 H         -18.202370      -55.591938      -11.673678
 H         -18.529417      -58.508308      -14.705139
 H         -20.127167      -57.935398      -14.185925
 H         -18.979448      -57.938217      -12.250546
 H         -17.419466      -57.312199      -12.984948
