20
 generated by VMD
 C          -9.210659      -24.006157        2.059819
 N          -9.017947      -25.071716        2.368698
 H          -7.764072      -23.229048       -0.817390
 H          -8.883551      -22.720161       -1.849306
 C          -7.838240      -23.039646       -1.879099
 C          -7.628020      -24.258810       -2.819741
 C          -6.969718      -21.807446       -2.190171
 C          -7.629380      -23.739408       -4.357481
 C          -6.973229      -21.389181       -3.696990
 C          -6.600724      -22.592838       -4.554082
 H          -8.399679      -24.997095       -2.824780
 H          -6.603037      -24.745111       -2.614487
 H          -7.329693      -20.976452       -1.600322
 H          -5.924640      -22.012266       -1.882852
 H          -8.643424      -23.362179       -4.446374
 H          -7.312750      -24.555862       -5.030781
 H          -6.226705      -20.618156       -3.795582
 H          -7.923385      -21.041544       -4.085634
 H          -6.626295      -22.204893       -5.579716
 H          -5.565826      -22.988573       -4.378454
