20
 generated by VMD
 C         -30.909338      -92.798798      -26.135208
 N         -30.335430      -92.550362      -25.142509
 H         -32.587399      -90.004822      -26.485369
 H         -31.472246      -93.020584      -27.028278
 C         -33.383301      -90.173828      -27.208214
 C         -33.893341      -91.539383      -27.140398
 C         -33.326118      -89.340958      -28.579834
 C         -35.308788      -91.647491      -27.866226
 C         -34.641052      -89.709404      -29.251455
 C         -34.972576      -91.139244      -29.243587
 H         -34.106560      -91.949135      -26.117315
 H         -33.293789      -92.402275      -27.592093
 H         -33.137417      -88.265419      -28.391216
 H         -32.355793      -89.713013      -29.071003
 H         -36.074871      -91.091927      -27.272099
 H         -35.729767      -92.639206      -27.996449
 H         -34.662067      -89.303116      -30.301720
 H         -35.491768      -89.175156      -28.754681
 H         -35.800808      -91.493774      -29.878071
 H         -34.084049      -91.648476      -29.716354
