20
 generated by VMD
 C         -69.055473     -187.398819      -67.825615
 N         -67.925652     -187.411301      -67.616524
 H         -68.157402     -187.292831      -64.129395
 H         -70.105438     -187.360382      -67.880005
 C         -69.113045     -187.433472      -63.576473
 C         -69.078087     -187.921234      -62.161751
 C         -70.371353     -186.907104      -63.998943
 C         -70.227737     -188.808899      -61.751308
 C         -71.583496     -187.749573      -63.737560
 C         -71.640846     -188.303177      -62.304573
 H         -69.000122     -187.036224      -61.372501
 H         -68.052177     -188.383835      -62.131901
 H         -70.598907     -185.916290      -63.638405
 H         -70.319847     -186.554825      -65.073349
 H         -70.273293     -188.839554      -60.626232
 H         -70.189064     -189.797333      -62.134335
 H         -71.594177     -188.597992      -64.465012
 H         -72.404877     -187.101242      -64.093346
 H         -71.825165     -187.568253      -61.529640
 H         -72.424805     -188.981476      -62.276711
