20
 generated by VMD
 C         -28.463013      -74.044067      -18.443369
 N         -29.186516      -73.379189      -17.856750
 H         -25.360537      -71.843056      -18.826918
 H         -27.659853      -74.732315      -18.783777
 C         -25.328215      -71.993050      -19.879684
 C         -24.809744      -73.133339      -20.561462
 C         -25.645742      -70.737808      -20.534754
 C         -25.262236      -73.170868      -22.107203
 C         -26.394440      -71.035637      -21.891472
 C         -25.464935      -71.833420      -22.794498
 H         -25.220434      -74.066635      -20.096548
 H         -23.615618      -73.142174      -20.533012
 H         -26.323727      -70.150391      -19.838871
 H         -24.784788      -70.146568      -20.771786
 H         -26.216642      -73.817558      -22.113815
 H         -24.421507      -73.750946      -22.587082
 H         -26.735407      -70.086945      -22.401989
 H         -27.350542      -71.537224      -21.507076
 H         -25.964867      -71.967995      -23.688526
 H         -24.475019      -71.427956      -23.008081
