20
 generated by VMD
 C         -13.227314      -43.359428       -6.690338
 N         -12.890243      -42.364769       -7.090977
 H         -14.718111      -44.313515       -8.381304
 H         -14.288846      -42.817459       -9.208449
 C         -15.048613      -43.693851       -9.251517
 C         -16.500875      -43.260735       -9.053179
 C         -14.903179      -44.512817      -10.513123
 C         -17.068794      -42.510887      -10.327672
 C         -15.628612      -43.926605      -11.717454
 C         -17.076424      -43.462791      -11.511850
 H         -16.584066      -42.619614       -8.213928
 H         -17.086821      -44.173725       -8.910376
 H         -13.843579      -44.686367      -10.740291
 H         -15.378093      -45.508442      -10.446591
 H         -16.524332      -41.589218      -10.520899
 H         -18.087442      -42.263889      -10.081248
 H         -15.465002      -44.624599      -12.481604
 H         -15.109846      -42.999710      -12.090331
 H         -17.452675      -42.975407      -12.420365
 H         -17.712904      -44.403187      -11.365920
