20
 generated by VMD
 C         -38.173523     -107.986153      -36.902615
 N         -38.409115     -108.397835      -37.945774
 H         -41.112392     -108.821503      -35.375469
 H         -37.996952     -107.521393      -35.964748
 C         -41.246113     -109.674889      -34.721500
 C         -40.314655     -110.740349      -35.089619
 C         -42.451351     -109.745491      -34.014977
 C         -40.108234     -111.603668      -33.826881
 C         -42.188873     -110.639000      -32.802277
 C         -41.433102     -111.971313      -33.094334
 H         -39.380501     -110.474403      -35.525944
 H         -40.710388     -111.454613      -35.770088
 H         -42.712196     -108.736984      -33.683880
 H         -43.234623     -110.229401      -34.689884
 H         -39.436451     -111.033508      -33.069290
 H         -39.541725     -112.393387      -34.212212
 H         -43.082355     -110.860100      -32.349537
 H         -41.662323     -109.963715      -32.149200
 H         -41.129993     -112.460464      -32.177685
 H         -42.126896     -112.766502      -33.612690
