20
 generated by VMD
 C          -9.150249      -23.881104        2.324243
 N          -8.768331      -24.919310        2.535797
 H          -8.196286      -23.395876       -0.942209
 H          -9.071224      -22.640993       -2.286504
 C          -8.005081      -23.012951       -1.986291
 C          -7.651432      -24.157351       -2.975514
 C          -7.086933      -21.778870       -2.123298
 C          -7.476662      -23.658569       -4.454747
 C          -6.941100      -21.329975       -3.562173
 C          -6.514367      -22.459791       -4.515705
 H          -8.334125      -24.982822       -2.856500
 H          -6.654385      -24.606426       -2.772954
 H          -7.410078      -20.934511       -1.497677
 H          -6.122562      -22.201363       -1.827387
 H          -8.398227      -23.189899       -4.862005
 H          -7.061979      -24.425200       -5.101747
 H          -6.176029      -20.529158       -3.677044
 H          -7.936809      -20.977230       -3.827564
 H          -6.475963      -22.142406       -5.553377
 H          -5.564857      -22.745996       -4.187969
