20
 generated by VMD
 C         -68.750732     -184.698639      -65.939613
 N         -69.590729     -185.470901      -66.105995
 H         -69.446236     -183.064758      -63.848019
 H         -68.018616     -183.954239      -65.727402
 C         -69.207977     -183.669876      -62.990944
 C         -69.902695     -184.934616      -62.627327
 C         -67.900467     -183.331848      -62.375637
 C         -68.994843     -185.882263      -61.777863
 C         -67.347900     -184.123688      -61.225254
 C         -68.265129     -185.096085      -60.603531
 H         -70.324356     -185.429855      -63.511211
 H         -70.728828     -184.634003      -61.910027
 H         -67.106590     -183.361938      -63.159561
 H         -67.991364     -182.229965      -62.061661
 H         -68.211098     -186.329117      -62.361599
 H         -69.614838     -186.734406      -61.509903
 H         -66.983215     -183.302353      -60.527573
 H         -66.406136     -184.597916      -61.416901
 H         -67.751701     -185.785919      -59.869926
 H         -68.983963     -184.553696      -59.943542
