20
 generated by VMD
 C         -14.159728      -28.150450       -3.285116
 N         -14.051983      -27.206919       -3.881469
 H         -10.361022      -28.387070       -2.812930
 H          -9.948114      -27.204121       -3.864600
 C          -9.482810      -28.097958       -3.362521
 C          -8.951366      -29.204447       -4.222869
 C          -8.357261      -27.530577       -2.522179
 C          -7.755424      -28.667767       -5.062036
 C          -7.277318      -26.959969       -3.349172
 C          -6.662509      -28.052311       -4.267532
 H          -9.774227      -29.638493       -4.886979
 H          -8.451818      -29.960531       -3.674444
 H          -8.676889      -26.784475       -1.796024
 H          -7.984485      -28.305649       -1.893728
 H          -8.273752      -27.879311       -5.645614
 H          -7.347173      -29.499254       -5.740038
 H          -6.472306      -26.505342       -2.751716
 H          -7.711881      -26.198910       -3.997968
 H          -5.849865      -27.645775       -4.884896
 H          -6.229716      -28.798597       -3.614182
