20
 generated by VMD
 C         -59.709801     -157.327576      -56.935623
 N         -60.863533     -156.976181      -57.005001
 H         -59.723152     -157.324371      -53.165661
 H         -58.641144     -157.597519      -56.722576
 C         -59.164753     -157.872925      -52.409885
 C         -57.851582     -157.284256      -51.935883
 C         -59.428722     -159.333221      -52.488419
 C         -57.396626     -158.008957      -50.774158
 C         -58.665646     -160.094360      -51.424343
 C         -57.302025     -159.535767      -51.110531
 H         -58.145302     -156.195068      -51.530190
 H         -57.081112     -157.154968      -52.765575
 H         -60.474564     -159.591019      -52.358627
 H         -59.150688     -159.446442      -53.546761
 H         -58.056515     -157.784470      -49.877449
 H         -56.318695     -157.728333      -50.491062
 H         -58.606674     -161.188171      -51.760494
 H         -59.380859     -160.020935      -50.525089
 H         -57.012581     -160.065414      -50.249603
 H         -56.522968     -159.847412      -51.936321
