20
 generated by VMD
 C         -70.288383     -183.384094      -65.980148
 N         -69.266373     -182.829620      -65.926636
 H         -68.485497     -185.010605      -63.018322
 H         -71.273575     -183.904449      -66.070168
 C         -68.322220     -184.302246      -62.211121
 C         -68.227013     -184.777527      -60.866810
 C         -67.808273     -182.949875      -62.684837
 C         -67.354065     -183.888718      -59.945866
 C         -67.113747     -181.978027      -61.691116
 C         -67.480339     -182.325821      -60.254387
 H         -67.924896     -185.805542      -60.736633
 H         -69.333046     -184.741211      -60.524807
 H         -66.983772     -183.124756      -63.506538
 H         -68.710297     -182.467865      -63.085285
 H         -66.280449     -184.010330      -60.037945
 H         -67.642776     -183.977249      -58.850777
 H         -67.343758     -180.940216      -61.951462
 H         -66.045113     -182.279785      -61.817650
 H         -66.745789     -181.695435      -59.537846
 H         -68.477280     -181.951172      -59.975842
