20
 generated by VMD
 C         -79.603958     -206.951233      -74.435371
 N         -80.326210     -206.016663      -74.442558
 H         -78.060173     -207.137589      -72.343697
 H         -78.694656     -207.638519      -74.517715
 C         -77.315384     -207.118469      -71.514854
 C         -76.025482     -206.302963      -71.538284
 C         -77.358566     -208.316162      -70.615242
 C         -75.400764     -206.062210      -70.155563
 C         -76.550629     -208.163071      -69.248192
 C         -75.252365     -207.400436      -69.379639
 H         -76.079117     -205.315460      -71.852310
 H         -75.444725     -206.913589      -72.213509
 H         -78.396515     -208.617004      -70.309837
 H         -76.945641     -209.190399      -71.109100
 H         -76.124847     -205.399033      -69.587608
 H         -74.416595     -205.526505      -70.222672
 H         -76.439125     -209.115021      -68.745605
 H         -77.168709     -207.531296      -68.507515
 H         -74.855583     -207.047272      -68.406326
 H         -74.578476     -208.106293      -69.841782
