20
 generated by VMD
 C         -70.344200     -196.677704      -65.420647
 N         -69.412262     -196.934448      -66.053383
 H         -73.825027     -195.602524      -64.843880
 H         -71.130714     -196.373688      -64.798225
 C         -73.675179     -195.160538      -65.856323
 C         -73.080322     -193.853317      -65.982773
 C         -74.513229     -195.649750      -67.065269
 C         -72.389191     -193.659668      -67.373047
 C         -74.185974     -194.944244      -68.518394
 C         -73.501144     -193.628357      -68.422585
 H         -72.466827     -193.697266      -65.194756
 H         -73.794373     -193.014664      -65.769211
 H         -74.211220     -196.764618      -67.121803
 H         -75.561325     -195.510193      -66.684372
 H         -71.675484     -194.475281      -67.571404
 H         -71.768059     -192.756104      -67.351303
 H         -75.178589     -194.814941      -69.050316
 H         -73.618668     -195.627869      -69.124855
 H         -72.944290     -193.276276      -69.394997
 H         -74.140549     -192.846283      -68.184166
