20
 generated by VMD
 C         -12.652784      -31.178123       -8.330036
 N         -12.175277      -30.316511       -7.777407
 H         -11.647364      -34.090099       -7.617771
 H         -12.655862      -33.232124       -6.452166
 C         -11.816431      -33.950397       -6.521217
 C         -10.511923      -33.476017       -5.797456
 C         -12.235897      -35.304623       -6.071968
 C         -10.572590      -33.585068       -4.251832
 C         -12.230331      -35.405235       -4.572674
 C         -10.903339      -35.029259       -3.956585
 H         -10.307689      -32.447025       -6.130497
 H          -9.694361      -34.113182       -6.138227
 H         -13.267605      -35.528282       -6.315698
 H         -11.618546      -36.125511       -6.476472
 H         -11.358925      -32.901669       -3.898750
 H          -9.579513      -33.452415       -3.804826
 H         -12.444002      -36.376530       -4.282995
 H         -13.068766      -34.711517       -4.252401
 H         -10.993546      -35.140427       -2.889322
 H         -10.068746      -35.705544       -4.253675
