20
 generated by VMD
 C         -13.155225      -27.857035       -2.675460
 N         -13.965617      -27.260782       -3.151307
 H         -10.532660      -27.482149       -3.497044
 H          -9.514158      -26.727127       -4.712286
 C          -9.472605      -27.404524       -3.894137
 C          -8.893505      -28.723864       -4.304821
 C          -8.633493      -26.792414       -2.745728
 C          -7.496116      -28.497799       -4.917615
 C          -7.214921      -26.583971       -3.280687
 C          -6.639115      -27.868246       -3.842599
 H          -9.409502      -29.276758       -5.051960
 H          -8.839174      -29.431452       -3.455120
 H          -9.197996      -25.927645       -2.403040
 H          -8.742331      -27.450050       -1.830408
 H          -7.640628      -27.775345       -5.719187
 H          -7.140528      -29.406149       -5.318181
 H          -6.545035      -26.161541       -2.474953
 H          -7.231373      -25.865715       -4.110287
 H          -5.649389      -27.720150       -4.248805
 H          -6.597049      -28.551649       -2.948650
