20
 generated by VMD
 C          -2.420301      -17.992260        2.453069
 N          -1.813469      -17.052319        2.478451
 H          -5.119053      -18.184141        0.926420
 H          -5.263346      -19.336462       -0.479372
 C          -5.789803      -18.497759        0.079111
 C          -5.899055      -17.285196       -0.886130
 C          -7.198452      -19.035839        0.467857
 C          -6.737732      -17.710659       -2.113498
 C          -7.965526      -19.512045       -0.778636
 C          -8.086864      -18.391689       -1.749415
 H          -4.890397      -17.045113       -1.109689
 H          -6.382589      -16.407137       -0.368630
 H          -7.081805      -19.934147        1.039297
 H          -7.816932      -18.229563        0.867791
 H          -6.194852      -18.413105       -2.795529
 H          -7.090175      -16.749355       -2.628993
 H          -8.994479      -19.742037       -0.517991
 H          -7.437307      -20.398073       -1.220519
 H          -8.573726      -18.757662       -2.687163
 H          -8.769720      -17.658014       -1.318100
