20
 generated by VMD
 C         -13.481269      -30.507360       -8.357130
 N         -13.611555      -30.124607       -9.405185
 H         -11.066238      -31.261488       -5.289864
 H         -11.091181      -31.862635       -3.709809
 C         -10.907056      -32.217377       -4.681291
 C          -9.505518      -32.804714       -4.805016
 C         -11.971099      -33.170414       -5.114475
 C          -9.301961      -34.118561       -4.033688
 C         -11.823508      -34.457680       -4.405463
 C         -10.444834      -35.091991       -4.358396
 H          -8.809714      -32.038582       -4.507039
 H          -9.284744      -32.931660       -5.873435
 H         -12.994049      -32.826553       -4.855661
 H         -12.034634      -33.343708       -6.210735
 H          -9.417606      -33.863808       -2.946039
 H          -8.277012      -34.543926       -4.179559
 H         -12.656790      -35.160324       -4.778264
 H         -12.109944      -34.258408       -3.381489
 H         -10.380731      -35.946140       -3.614273
 H         -10.279546      -35.599022       -5.307222
