20
 generated by VMD
 C         -40.120743     -104.757408      -35.989437
 N         -39.479473     -104.633911      -36.966957
 H         -40.512466     -107.906296      -35.090343
 H         -40.898876     -104.829514      -35.208565
 C         -39.903580     -108.059929      -34.190655
 C         -38.866322     -107.102966      -33.749432
 C         -40.111523     -109.380539      -33.511681
 C         -38.861862     -107.027748      -32.151516
 C         -39.980087     -109.360825      -32.003284
 C         -38.796555     -108.377312      -31.534637
 H         -38.977779     -106.079239      -34.039459
 H         -37.948883     -107.294189      -34.311466
 H         -41.089851     -109.767593      -33.772694
 H         -39.360180     -110.075897      -33.958698
 H         -39.794346     -106.630180      -31.773252
 H         -38.019840     -106.475327      -31.857288
 H         -39.776371     -110.288513      -31.487602
 H         -40.931839     -108.967720      -31.581451
 H         -38.655666     -108.358437      -30.483976
 H         -37.832535     -108.834091      -31.986273
