20
 generated by VMD
 C         -57.909271     -164.464310      -56.660023
 N         -57.260315     -163.694199      -57.154488
 H         -60.383709     -164.079880      -53.779831
 H         -58.511189     -165.195267      -56.147755
 C         -60.997551     -164.775330      -54.457184
 C         -61.884148     -165.818192      -53.926083
 C         -61.287674     -164.363739      -55.850670
 C         -63.269783     -165.228134      -53.808353
 C         -62.741821     -164.000946      -55.986118
 C         -63.687828     -164.834061      -55.181293
 H         -61.502796     -166.331436      -52.978344
 H         -61.912315     -166.730560      -54.559700
 H         -60.542500     -163.709488      -56.203907
 H         -61.167797     -165.335709      -56.358662
 H         -63.274746     -164.298996      -53.216015
 H         -63.950619     -166.084076      -53.563427
 H         -63.019730     -163.957108      -57.010300
 H         -62.975407     -162.921661      -55.745056
 H         -64.746994     -164.302750      -55.134846
 H         -63.831406     -165.741226      -55.878319
