20
 generated by VMD
 C         -67.196571     -191.549469      -66.197243
 N         -67.239548     -191.003296      -67.229996
 H         -70.298691     -190.185532      -66.412086
 H         -67.005234     -192.188187      -65.398918
 C         -71.058411     -190.127594      -65.600227
 C         -72.025009     -191.245010      -65.522331
 C         -70.991920     -189.123657      -64.581940
 C         -73.354721     -190.753418      -64.910522
 C         -72.084892     -189.138367      -63.496792
 C         -73.071983     -190.383331      -63.463840
 H         -71.689827     -192.149582      -64.879936
 H         -72.289833     -191.601959      -66.549713
 H         -70.024269     -189.152481      -64.021538
 H         -71.041412     -188.143509      -65.025772
 H         -74.112816     -191.542511      -65.065125
 H         -73.834396     -189.954117      -65.463364
 H         -72.736748     -188.252350      -63.598797
 H         -71.685669     -188.888916      -62.448555
 H         -72.541992     -191.350327      -63.117310
 H         -73.788437     -190.059402      -62.748184
