20
 generated by VMD
 C         -68.807259     -180.235641      -62.339546
 N         -69.792404     -180.805038      -62.213539
 H         -66.931549     -180.534088      -59.193794
 H         -67.940125     -179.600677      -62.542442
 C         -66.404060     -179.809402      -59.722458
 C         -65.561653     -180.039932      -60.877720
 C         -66.197189     -178.477249      -58.921967
 C         -65.136726     -178.858597      -61.754242
 C         -66.251755     -177.346558      -59.886333
 C         -65.210297     -177.519501      -60.978539
 H         -65.864365     -180.936905      -61.517525
 H         -64.528473     -180.426437      -60.451141
 H         -67.025658     -178.453766      -58.159286
 H         -65.282387     -178.550308      -58.373096
 H         -65.736122     -178.693375      -62.707802
 H         -64.027298     -178.977859      -61.959206
 H         -66.082039     -176.428238      -59.377037
 H         -67.218674     -177.188278      -60.357780
 H         -65.509842     -176.705078      -61.697121
 H         -64.040985     -177.227463      -60.646812
