20
 generated by VMD
 C         -51.125420     -127.914871      -41.571888
 N         -51.942154     -128.639359      -41.868427
 H         -47.364628     -128.118103      -41.050781
 H         -50.336323     -127.212112      -41.409893
 C         -46.620598     -127.378578      -40.851379
 C         -45.425049     -127.813385      -40.060955
 C         -46.756088     -125.987694      -41.095200
 C         -44.180279     -127.306206      -40.764172
 C         -45.599995     -125.482147      -41.898106
 C         -44.255753     -125.766380      -41.173313
 H         -45.301605     -128.840607      -39.942398
 H         -45.442272     -127.445831      -39.004456
 H         -47.568642     -125.837990      -41.722828
 H         -46.928879     -125.244530      -40.262829
 H         -44.018948     -127.915619      -41.693962
 H         -43.244617     -127.532349      -40.212803
 H         -45.524590     -124.389359      -41.991734
 H         -45.531044     -125.951584      -42.856342
 H         -43.364700     -125.369705      -41.800846
 H         -44.429459     -125.172195      -40.241810
