20
 generated by VMD
 C         -40.622791     -100.192627      -30.299141
 N         -41.178085     -100.465836      -29.289925
 H         -37.245827     -100.507828      -30.488964
 H         -40.062321     -100.196602      -31.172792
 C         -36.360031     -100.101204      -30.883131
 C         -36.057194      -99.915787      -32.221844
 C         -35.278095     -100.177650      -29.792503
 C         -35.181931      -98.766983      -32.491978
 C         -34.489731      -98.997192      -30.038815
 C         -33.997387      -98.819168      -31.516867
 H         -37.031815      -99.617706      -32.709793
 H         -35.778484     -100.890915      -32.564350
 H         -35.824226     -100.175964      -28.769661
 H         -34.729115     -101.096870      -29.886847
 H         -35.773445      -97.836632      -32.376015
 H         -34.752644      -98.882698      -33.555992
 H         -33.542934      -98.966743      -29.455111
 H         -35.035065      -98.128273      -29.806299
 H         -33.319431      -97.988434      -31.634212
 H         -33.388901      -99.658905      -31.917307
