20
 generated by VMD
 C         -29.468815      -74.532967      -20.016520
 N         -30.605148      -74.713501      -20.293697
 H         -26.045149      -73.893570      -18.816715
 H         -28.477116      -74.305901      -19.925495
 C         -25.705547      -73.721886      -19.822399
 C         -25.580130      -74.797333      -20.740831
 C         -25.558029      -72.330070      -20.506475
 C         -26.090847      -74.645126      -22.116690
 C         -26.084141      -72.225853      -21.956032
 C         -25.616100      -73.356995      -22.821297
 H         -26.073704      -75.635262      -20.388216
 H         -24.548140      -75.225250      -20.802259
 H         -26.086527      -71.726692      -19.708405
 H         -24.565144      -72.021347      -20.318403
 H         -27.175911      -74.782944      -22.171286
 H         -25.749840      -75.540115      -22.634634
 H         -25.804962      -71.241531      -22.358139
 H         -27.201572      -72.066200      -21.869743
 H         -26.130383      -73.308762      -23.786539
 H         -24.636295      -73.164841      -23.070431
