20
 generated by VMD
 C         -30.017265      -92.033295      -25.565908
 N         -29.143194      -92.276985      -24.803812
 H         -32.884933      -89.728882      -26.458883
 H         -30.682381      -91.673111      -26.353333
 C         -33.322346      -90.237213      -27.327728
 C         -34.036018      -91.499863      -27.302898
 C         -33.252773      -89.438889      -28.574347
 C         -35.515301      -91.018158      -27.655470
 C         -34.723103      -89.103378      -29.114553
 C         -35.542397      -90.411476      -29.084671
 H         -33.807468      -91.840698      -26.316792
 H         -33.573639      -92.303902      -27.928768
 H         -32.764938      -88.448769      -28.487797
 H         -32.712479      -89.888664      -29.438751
 H         -35.846794      -90.380905      -26.774134
 H         -36.142731      -91.914513      -27.629629
 H         -34.719025      -88.856491      -30.169691
 H         -35.286369      -88.336143      -28.582054
 H         -36.600357      -90.135582      -29.403755
 H         -35.177864      -91.147446      -29.840027
