20
 generated by VMD
 C         -71.493912     -199.009003      -64.626381
 N         -70.532295     -198.734268      -65.202797
 H         -72.257706     -196.557495      -66.378349
 H         -72.326843     -199.417603      -64.111076
 C         -72.860390     -195.959518      -67.037468
 C         -73.108650     -194.545120      -66.722656
 C         -73.359581     -196.432327      -68.393829
 C         -73.413841     -193.688889      -67.897995
 C         -74.712418     -195.769348      -68.872185
 C         -74.557655     -194.192688      -68.829750
 H         -72.355293     -194.180161      -66.083267
 H         -73.920525     -194.320679      -65.949257
 H         -72.508904     -196.339218      -69.145096
 H         -73.517845     -197.522766      -68.371468
 H         -72.500481     -193.645569      -68.495003
 H         -73.512115     -192.672455      -67.622681
 H         -75.620926     -196.098343      -68.395134
 H         -74.795578     -196.256058      -69.842140
 H         -74.620171     -193.753891      -69.882324
 H         -75.479996     -193.867813      -68.335747
