20
 generated by VMD
 C         -29.121880      -80.624779      -27.133169
 N         -30.038048      -80.212898      -27.707937
 H         -28.519566      -82.320343      -24.305618
 H         -28.393173      -80.924980      -26.497501
 C         -29.153175      -83.122948      -23.943575
 C         -29.449585      -83.226334      -22.447536
 C         -29.997267      -83.972092      -24.945166
 C         -30.999823      -83.292648      -22.219532
 C         -31.482985      -84.073158      -24.581545
 C         -31.704376      -84.345604      -23.104866
 H         -29.081665      -82.230789      -21.916534
 H         -28.901594      -84.128319      -22.053944
 H         -29.987053      -83.563400      -25.997574
 H         -29.486036      -84.898079      -25.011827
 H         -31.486000      -82.429543      -22.570444
 H         -31.209408      -83.517609      -21.071840
 H         -31.919571      -84.934547      -25.266705
 H         -31.907898      -83.131912      -24.959826
 H         -32.778099      -84.473022      -22.784605
 H         -31.257740      -85.329079      -22.901176
