20
 generated by VMD
 C         -77.411629     -202.974503      -69.412277
 N         -77.828827     -203.819626      -68.739143
 H         -75.677872     -201.931641      -67.362503
 H         -76.889359     -202.220276      -70.059875
 C         -74.997833     -201.563019      -68.158859
 C         -75.163765     -200.109314      -68.520920
 C         -73.986603     -202.397156      -68.899620
 C         -74.640358     -199.745758      -69.912010
 C         -73.114090     -201.580307      -69.937370
 C         -74.119377     -200.730515      -70.885063
 H         -74.588150     -199.520599      -67.806160
 H         -76.226639     -199.813034      -68.397713
 H         -73.307411     -202.755386      -68.191048
 H         -74.351822     -203.279205      -69.327690
 H         -73.962234     -198.886932      -69.799950
 H         -75.429047     -199.212479      -70.490410
 H         -72.420670     -202.269974      -70.491447
 H         -72.426941     -200.862747      -69.477936
 H         -73.699837     -200.171127      -71.762421
 H         -74.986816     -201.360733      -71.302429
