20
 generated by VMD
 C         -40.482048     -118.835358      -35.520798
 N         -39.559849     -118.302727      -34.996819
 H         -43.316628     -116.611687      -36.056580
 H         -41.366898     -119.108101      -35.983692
 C         -43.891659     -116.927719      -36.959000
 C         -43.044197     -117.394180      -38.086651
 C         -45.183113     -116.310654      -37.427643
 C         -43.739094     -118.198479      -39.149162
 C         -45.846882     -117.097565      -38.595772
 C         -44.997803     -117.525307      -39.734829
 H         -42.268883     -118.066231      -37.749866
 H         -42.523754     -116.532967      -38.503433
 H         -45.805481     -116.096893      -36.571869
 H         -44.731571     -115.370750      -37.784988
 H         -44.045902     -119.153397      -38.671360
 H         -43.195309     -118.346039      -40.082901
 H         -46.663441     -116.489357      -38.963005
 H         -46.265606     -117.973778      -37.967403
 H         -45.568295     -118.266312      -40.245682
 H         -44.813152     -116.524208      -40.413181
