20
 generated by VMD
 C         -67.838264     -185.873016      -67.042542
 N         -68.593597     -185.361542      -67.762527
 H         -68.617676     -188.240738      -64.489441
 H         -67.061829     -186.312958      -66.492409
 C         -69.248344     -187.889526      -63.724453
 C         -68.990257     -186.573441      -63.225723
 C         -70.710526     -188.396957      -63.605404
 C         -69.378777     -186.468292      -61.727615
 C         -71.188309     -188.399628      -62.107521
 C         -70.865913     -186.975281      -61.514835
 H         -69.475662     -185.875443      -63.920067
 H         -67.987839     -186.206894      -63.387890
 H         -71.426605     -187.948776      -64.265167
 H         -70.762001     -189.437897      -63.983875
 H         -69.334045     -185.426758      -61.541611
 H         -68.800545     -187.135223      -61.003506
 H         -70.515022     -189.033859      -61.635830
 H         -72.188461     -188.772034      -62.003616
 H         -71.624413     -186.320679      -62.120285
 H         -71.072815     -186.873184      -60.448257
