20
 generated by VMD
 C         -39.899082      -99.409599      -28.594557
 N         -39.077675     -100.039169      -28.035198
 H         -37.419765      -98.792488      -30.604235
 H         -40.464508      -98.797775      -29.251505
 C         -36.375172      -98.498222      -30.632910
 C         -35.839573      -98.581245      -32.098919
 C         -35.544582      -97.947395      -29.507832
 C         -34.507790      -97.868446      -32.521992
 C         -34.329163      -97.172981      -29.962875
 C         -33.596958      -97.666183      -31.211168
 H         -36.670124      -98.104668      -32.672165
 H         -35.820145      -99.692368      -32.388008
 H         -36.133625      -97.264153      -28.850958
 H         -35.339741      -98.893387      -28.976166
 H         -34.790356      -96.832855      -32.855194
 H         -33.863312      -98.398804      -33.235470
 H         -33.608944      -96.841438      -29.162153
 H         -34.729389      -96.194626      -30.216827
 H         -32.742851      -96.908676      -31.436438
 H         -33.104179      -98.556183      -30.948940
