20
 generated by VMD
 C         -13.682371      -28.034712       -2.850193
 N         -14.038987      -27.174833       -3.464475
 H         -10.337857      -28.162767       -3.115744
 H          -9.859869      -26.955013       -4.308186
 C          -9.470986      -27.695524       -3.581325
 C          -8.889801      -28.875252       -4.361800
 C          -8.507429      -27.035042       -2.597687
 C          -7.553544      -28.589973       -5.002423
 C          -7.216879      -26.680529       -3.395000
 C          -6.586721      -27.966249       -3.973474
 H          -9.723197      -29.099577       -5.097091
 H          -8.819839      -29.670210       -3.669702
 H          -8.929719      -26.103775       -2.171395
 H          -8.319532      -27.681423       -1.706721
 H          -7.638603      -27.877155       -5.827329
 H          -7.032313      -29.511478       -5.312917
 H          -6.527576      -26.226612       -2.678799
 H          -7.453926      -25.979904       -4.173021
 H          -5.611557      -27.675623       -4.388920
 H          -6.407128      -28.720547       -3.201690
