20
 generated by VMD
 C         -11.644541      -41.824886       -6.102765
 N         -10.861137      -41.551258       -6.874706
 H         -14.592001      -41.405197       -8.355722
 H         -15.280490      -40.619488       -9.728881
 C         -15.227316      -41.529644       -9.215116
 C         -16.645300      -41.974174       -8.713411
 C         -14.634124      -42.590309      -10.166780
 C         -17.578522      -42.560226       -9.819963
 C         -15.544165      -42.969341      -11.331060
 C         -16.808578      -43.536560      -10.713367
 H         -17.123171      -41.061878       -8.305678
 H         -16.580564      -42.654510       -7.877448
 H         -13.665651      -42.088612      -10.498983
 H         -14.403854      -43.458279       -9.542424
 H         -17.936436      -41.763653      -10.533689
 H         -18.380526      -43.137718       -9.332096
 H         -15.082438      -43.690308      -11.933248
 H         -15.769069      -42.077522      -12.008324
 H         -17.432655      -43.930878      -11.527957
 H         -16.606705      -44.424309      -10.106802
