20
 generated by VMD
 C         -17.974550      -48.524029       -7.167475
 N         -17.646669      -47.942745       -6.271651
 H         -16.470034      -48.348270      -10.354628
 H         -15.808789      -48.961433      -11.966670
 C         -16.300522      -48.161919      -11.399187
 C         -15.442168      -46.862984      -11.436701
 C         -17.677303      -47.908047      -11.995567
 C         -15.335996      -46.262096      -12.842804
 C         -17.636120      -47.269630      -13.385664
 C         -16.705194      -45.971199      -13.454523
 H         -14.454391      -47.102375      -11.049656
 H         -15.864508      -46.002495      -10.843808
 H         -18.269728      -48.875790      -11.980414
 H         -18.294861      -47.239456      -11.344681
 H         -14.751331      -46.937634      -13.483292
 H         -14.726755      -45.341175      -12.755132
 H         -18.703709      -46.922848      -13.641449
 H         -17.330566      -47.972069      -14.158645
 H         -16.644239      -45.513546      -14.419590
 H         -17.191107      -45.186653      -12.890793
