20
 generated by VMD
 C         -13.402509      -30.868744       -8.294617
 N         -13.101289      -30.035568       -9.005631
 H         -11.401855      -31.924843       -6.145137
 H         -11.560469      -32.078079       -4.488847
 C         -11.188635      -32.596745       -5.333998
 C          -9.750501      -32.975288       -5.160405
 C         -12.081136      -33.851170       -5.513041
 C          -9.646235      -33.981457       -3.976723
 C         -12.000601      -34.851189       -4.399781
 C         -10.588821      -35.241470       -4.165311
 H          -9.040791      -32.077484       -5.117384
 H          -9.383619      -33.490219       -6.023802
 H         -13.150079      -33.691101       -5.735182
 H         -11.759830      -34.416370       -6.421036
 H          -9.933947      -33.339535       -3.077086
 H          -8.566882      -34.264503       -3.687015
 H         -12.647627      -35.710136       -4.492666
 H         -12.479816      -34.308918       -3.494106
 H         -10.576805      -35.893524       -3.307488
 H         -10.236965      -35.851685       -5.058800
