20
 generated by VMD
 C          -3.336285      -17.434895        2.381300
 N          -3.244045      -18.293791        1.672628
 H          -5.469202      -20.014004        0.837029
 H          -5.584474      -20.661547       -0.811089
 C          -5.969069      -19.844248       -0.147744
 C          -5.528647      -18.508360       -0.687110
 C          -7.411592      -19.792284        0.137817
 C          -6.219564      -18.133324       -1.999173
 C          -8.143553      -19.353024       -1.145425
 C          -7.760611      -18.066015       -1.829068
 H          -4.459791      -18.620024       -1.013199
 H          -5.579311      -17.829420        0.115663
 H          -7.746153      -20.868055        0.420547
 H          -7.743526      -19.117781        1.005552
 H          -5.994332      -18.912317       -2.792375
 H          -5.785100      -17.190004       -2.391380
 H          -9.202616      -19.307671       -0.850089
 H          -8.063564      -20.129505       -1.877349
 H          -8.241067      -17.967718       -2.803294
 H          -7.971375      -17.187696       -1.180167
