20
 generated by VMD
 C         -65.817078     -177.673447      -56.874363
 N         -66.222992     -176.592056      -57.090565
 H         -64.918755     -175.694946      -59.043793
 H         -65.409958     -178.672623      -56.758041
 C         -64.679070     -174.658676      -59.408546
 C         -65.420815     -173.630341      -58.630356
 C         -63.523777     -174.349670      -60.313038
 C         -65.239952     -172.221283      -59.037415
 C         -63.054070     -172.819092      -60.209229
 C         -64.410461     -172.026001      -60.216568
 H         -65.392769     -173.757111      -57.486275
 H         -66.467613     -173.893585      -58.821491
 H         -62.665253     -174.989029      -60.314899
 H         -63.761963     -174.485962      -61.411495
 H         -64.872444     -171.729385      -58.148365
 H         -66.248215     -171.827332      -59.095306
 H         -62.351009     -172.544968      -60.942432
 H         -62.564209     -172.484634      -59.245880
 H         -64.130486     -170.937408      -60.263142
 H         -64.856834     -172.140945      -61.222122
