20
 generated by VMD
 C          -3.792449      -18.163067        1.952888
 N          -3.130975      -18.394762        2.818660
 H          -5.592964      -20.719780        0.244991
 H          -6.345168      -21.086321       -1.233276
 C          -6.217262      -20.264614       -0.541399
 C          -5.479349      -19.133757       -1.184746
 C          -7.630316      -19.939949       -0.126075
 C          -6.275282      -18.557936       -2.313066
 C          -8.456757      -19.446630       -1.298024
 C          -7.681664      -18.262968       -1.958403
 H          -4.559142      -19.485050       -1.526537
 H          -5.195982      -18.423719       -0.378717
 H          -8.062078      -20.886997        0.465439
 H          -7.639429      -19.096632        0.664269
 H          -6.277106      -19.289913       -3.182763
 H          -5.727605      -17.653511       -2.745662
 H          -9.509673      -19.210911       -1.100526
 H          -8.450609      -20.234470       -2.110000
 H          -8.223208      -17.974525       -2.872797
 H          -7.754047      -17.406754       -1.300065
