20
 generated by VMD
 C         -62.650845     -172.089966      -55.326298
 N         -61.959732     -172.984222      -55.339382
 H         -61.646881     -171.337952      -58.074154
 H         -63.341160     -171.278137      -55.191952
 C         -62.479534     -170.623596      -58.178749
 C         -62.378857     -169.070465      -57.971504
 C         -63.806099     -171.204254      -58.654842
 C         -63.629433     -168.292877      -58.245239
 C         -64.927284     -170.234039      -58.791546
 C         -64.832710     -169.146439      -57.799538
 H         -61.560043     -168.651764      -58.717876
 H         -61.995522     -168.909683      -57.027370
 H         -63.713768     -171.811432      -59.591133
 H         -64.128654     -172.040894      -57.831207
 H         -63.780155     -168.035355      -59.317646
 H         -63.700886     -167.329712      -57.833122
 H         -65.887962     -170.693634      -58.720314
 H         -64.990845     -169.907318      -59.774685
 H         -65.770508     -168.564499      -57.893997
 H         -64.611992     -169.326996      -56.685886
