20
 generated by VMD
 C         -58.571316     -161.812180      -56.484760
 N         -57.933746     -160.916702      -56.081963
 H         -59.509544     -164.933899      -55.268925
 H         -59.144733     -162.629303      -56.899780
 C         -60.298149     -164.277466      -54.809570
 C         -59.971607     -163.636719      -53.506226
 C         -61.680595     -164.392502      -55.292938
 C         -60.645405     -162.331665      -53.383732
 C         -62.500637     -163.206680      -54.795338
 C         -62.213135     -162.567596      -53.419136
 H         -58.882740     -163.420700      -53.403080
 H         -60.251202     -164.400574      -52.797680
 H         -61.663090     -164.258408      -56.461182
 H         -62.062222     -165.324219      -54.946442
 H         -60.495895     -161.723892      -54.222935
 H         -60.539829     -161.836411      -52.390633
 H         -63.577885     -163.524414      -54.830307
 H         -62.647152     -162.495178      -55.568550
 H         -62.778461     -161.633865      -53.351624
 H         -62.588646     -163.250122      -52.598297
