20
 generated by VMD
 C         -48.132668     -140.346451      -45.721653
 N         -47.006554     -140.020676      -45.613384
 H         -51.115505     -138.658524      -45.502949
 H         -49.223156     -140.504059      -45.889267
 C         -51.945183     -139.341492      -45.759510
 C         -52.273933     -139.400146      -47.165234
 C         -53.141518     -139.284912      -44.844795
 C         -53.250500     -140.490524      -47.517048
 C         -54.146637     -140.460419      -45.157871
 C         -54.475559     -140.543030      -46.579681
 H         -51.262321     -139.400299      -47.731659
 H         -52.673409     -138.469696      -47.603424
 H         -52.772900     -139.235092      -43.794220
 H         -53.809258     -138.388947      -44.999722
 H         -52.798279     -141.460983      -47.624359
 H         -53.586063     -140.175934      -48.461082
 H         -55.069752     -140.323196      -44.573967
 H         -53.716564     -141.443100      -44.793648
 H         -55.072102     -141.358871      -46.704670
 H         -55.036098     -139.633972      -46.670311
