20
 generated by VMD
 C         -79.179054     -205.747025      -73.815483
 N         -79.159622     -206.885818      -73.629372
 H         -78.766045     -206.327942      -70.702248
 H         -78.923363     -204.641891      -73.829269
 C         -77.706184     -206.357864      -70.546402
 C         -76.729706     -205.448837      -71.321785
 C         -77.211174     -207.556503      -69.799576
 C         -75.310089     -205.386993      -70.780342
 C         -75.812202     -207.385147      -69.229393
 C         -74.863464     -206.741119      -70.242851
 H         -77.128014     -204.435486      -71.418793
 H         -76.844978     -205.847916      -72.273293
 H         -77.975861     -207.910995      -69.112747
 H         -77.057823     -208.369858      -70.554367
 H         -75.277374     -204.587463      -70.040604
 H         -74.674019     -205.057236      -71.622269
 H         -75.464844     -208.433807      -68.944061
 H         -75.749733     -206.804642      -68.299950
 H         -74.002975     -206.519516      -69.547516
 H         -74.542839     -207.432571      -71.062523
