20
 generated by VMD
 C         -68.965324     -180.961823      -61.216789
 N         -69.947273     -180.817047      -60.576824
 H         -67.206078     -178.385254      -59.614109
 H         -68.039185     -180.935944      -61.726528
 C         -66.252022     -177.887161      -59.840885
 C         -65.867134     -178.032883      -61.200695
 C         -65.358711     -177.365448      -58.822685
 C         -64.973083     -176.932632      -61.768215
 C         -64.678650     -176.084396      -59.238853
 C         -64.045822     -176.340530      -60.677227
 H         -66.745972     -178.001160      -61.866684
 H         -65.279594     -178.950577      -61.432529
 H         -65.938553     -177.374695      -57.944313
 H         -64.612572     -178.156677      -58.673115
 H         -65.615814     -176.201401      -62.068913
 H         -64.503105     -177.112152      -62.742477
 H         -63.850128     -175.853363      -58.541073
 H         -65.375725     -175.256546      -59.043297
 H         -63.784309     -175.442154      -61.141926
 H         -63.167297     -176.916962      -60.646034
