20
 generated by VMD
 C         -24.883692      -70.789452      -16.713882
 N         -25.191113      -70.859642      -15.596644
 H         -23.960814      -68.362823      -18.706749
 H         -24.852074      -70.630783      -17.877424
 C         -24.568686      -68.761620      -19.542225
 C         -23.842733      -69.487175      -20.734238
 C         -25.878010      -68.226768      -19.654682
 C         -24.804754      -70.458778      -21.372869
 C         -26.724277      -69.117615      -20.442629
 C         -26.155008      -69.728806      -21.661852
 H         -22.922459      -69.996559      -20.398779
 H         -23.382013      -68.777710      -21.278797
 H         -26.236574      -68.153656      -18.619280
 H         -25.840406      -67.234596      -20.107834
 H         -24.889042      -71.205521      -20.633043
 H         -24.340582      -70.894814      -22.283524
 H         -27.578686      -68.576561      -20.814901
 H         -27.179817      -69.888733      -19.881184
 H         -26.880365      -70.529465      -21.980888
 H         -26.175745      -68.980301      -22.486929
