20
 generated by VMD
 C         -11.473405      -25.935045       -0.863374
 N         -11.246476      -24.955505       -0.373183
 H          -7.636289      -26.046448       -1.092676
 H          -9.002593      -25.465429       -1.932301
 C          -7.895716      -25.551805       -2.007081
 C          -7.399825      -26.373823       -3.172901
 C          -7.355004      -24.118086       -2.008119
 C          -7.616561      -25.686710       -4.536246
 C          -7.626308      -23.491041       -3.412370
 C          -6.986996      -24.373766       -4.516022
 H          -7.996537      -27.253571       -3.199736
 H          -6.285280      -26.476425       -3.114455
 H          -7.883157      -23.550034       -1.177940
 H          -6.304739      -24.209131       -1.835864
 H          -8.689568      -25.677792       -4.725525
 H          -7.018094      -26.219425       -5.256987
 H          -7.183956      -22.479641       -3.400509
 H          -8.689751      -23.299112       -3.660602
 H          -7.131161      -23.829554       -5.493424
 H          -5.923391      -24.521309       -4.425806
