20
 generated by VMD
 C         -31.201382      -77.207008      -25.002075
 N         -32.100628      -77.064690      -25.782572
 H         -29.390514      -76.994980      -22.549126
 H         -30.397243      -77.352196      -24.382992
 C         -28.631193      -77.763344      -22.285488
 C         -27.446211      -78.036537      -23.221310
 C         -28.913527      -78.809372      -21.215799
 C         -26.183874      -78.627144      -22.526312
 C         -27.628965      -79.590660      -20.647757
 C         -26.637024      -79.916260      -21.798407
 H         -27.240301      -77.148170      -23.805899
 H         -27.671827      -78.620483      -24.121866
 H         -29.516020      -78.332436      -20.517874
 H         -29.612793      -79.552307      -21.647545
 H         -25.712765      -77.992416      -21.750153
 H         -25.523609      -78.844810      -23.351164
 H         -27.920595      -80.452026      -20.109049
 H         -27.021135      -78.939072      -20.082590
 H         -25.689529      -80.253082      -21.325365
 H         -27.164324      -80.642708      -22.447697
