20
 generated by VMD
 C         -50.341827     -128.937363      -43.585785
 N         -50.825485     -129.515427      -44.490364
 H         -48.888409     -128.281387      -40.424599
 H         -50.034748     -128.478775      -42.650436
 C         -47.818817     -128.137222      -40.253910
 C         -47.020851     -129.366928      -40.082310
 C         -47.086494     -126.968719      -40.734344
 C         -46.069931     -129.753769      -41.216709
 C         -46.068275     -127.185822      -41.879089
 C         -45.185654     -128.478027      -41.702351
 H         -47.753593     -130.143555      -39.948399
 H         -46.413265     -129.396698      -39.171452
 H         -47.710499     -126.171425      -40.965672
 H         -46.413155     -126.542953      -39.856953
 H         -46.591846     -130.083710      -42.062565
 H         -45.340752     -130.419067      -40.919205
 H         -45.446133     -126.241470      -41.952839
 H         -46.720684     -127.342987      -42.779198
 H         -44.764637     -128.788712      -42.636143
 H         -44.386436     -128.316360      -40.991882
