20
 generated by VMD
 C         -11.957404      -26.095579       -0.074463
 N         -12.891669      -26.238319       -0.651854
 H         -10.013649      -26.467278       -3.352366
 H          -9.432410      -25.660065       -4.852328
 C          -9.089128      -26.151176       -3.915408
 C          -8.069496      -27.287575       -4.110554
 C          -8.466627      -25.149004       -2.858160
 C          -6.769803      -26.756325       -4.703589
 C          -7.121529      -24.563879       -3.505762
 C          -6.149528      -25.739573       -3.783165
 H          -8.418768      -28.009163       -4.815823
 H          -7.901598      -27.834528       -3.173331
 H          -9.148464      -24.333521       -2.836450
 H          -8.237826      -25.577078       -1.828873
 H          -6.894320      -26.356609       -5.719373
 H          -6.100720      -27.648703       -4.840478
 H          -6.692729      -23.835001       -2.788594
 H          -7.264534      -23.942551       -4.392788
 H          -5.248632      -25.361937       -4.270676
 H          -5.722696      -26.165323       -2.844887
