20
 generated by VMD
 C         -48.508827     -135.811325      -46.158546
 N         -47.672260     -136.169708      -45.507385
 H         -52.107365     -135.210693      -45.900402
 H         -49.283993     -135.520065      -46.814777
 C         -51.632248     -135.988770      -45.393246
 C         -52.425076     -137.204681      -45.719746
 C         -51.181759     -135.761536      -43.959896
 C         -51.772888     -138.436279      -45.244751
 C         -50.555580     -137.038971      -43.359753
 C         -51.343163     -138.268127      -43.753437
 H         -52.566433     -137.240601      -46.830261
 H         -53.386715     -137.040344      -45.212097
 H         -50.466953     -134.879974      -44.045956
 H         -52.108604     -135.400681      -43.478329
 H         -50.857250     -138.666809      -45.749863
 H         -52.288929     -139.413757      -45.427444
 H         -50.698357     -136.953705      -42.279297
 H         -49.499249     -137.168243      -43.456120
 H         -50.660568     -139.229599      -43.523098
 H         -52.213959     -138.380630      -43.060394
