20
 generated by VMD
 C         -51.352753     -127.721840      -41.388077
 N         -51.874676     -128.679657      -41.867138
 H         -47.483273     -128.061172      -40.820240
 H         -50.792610     -126.814087      -41.115589
 C         -46.584770     -127.388275      -40.689350
 C         -45.327797     -127.708878      -40.118729
 C         -46.727989     -125.953171      -41.138599
 C         -43.995171     -127.114822      -40.761997
 C         -45.521973     -125.362083      -41.905907
 C         -44.184158     -125.677116      -41.160767
 H         -45.383385     -128.798996      -40.039104
 H         -45.426365     -127.439667      -39.021973
 H         -47.570404     -126.011078      -41.898556
 H         -46.986603     -125.463150      -40.276608
 H         -43.778587     -127.622658      -41.648479
 H         -43.161865     -127.217720      -40.077034
 H         -45.786808     -124.314606      -41.824215
 H         -45.474312     -125.665817      -42.963303
 H         -43.433842     -125.178741      -41.742950
 H         -44.358749     -125.089417      -40.224693
