20
 generated by VMD
 C         -58.788559     -158.889160      -58.094044
 N         -58.625408     -159.863022      -57.520592
 H         -58.880028     -160.906326      -54.716087
 H         -58.985111     -158.021881      -58.675148
 C         -59.389523     -161.459457      -53.968193
 C         -58.758984     -161.799728      -52.615997
 C         -60.755665     -161.986603      -54.324501
 C         -59.718067     -161.595810      -51.434151
 C         -61.755203     -161.851669      -53.140602
 C         -61.084549     -162.305054      -51.797810
 H         -57.806366     -161.292999      -52.420818
 H         -58.525932     -162.793594      -52.729099
 H         -61.304592     -161.517471      -55.211163
 H         -60.630215     -163.083115      -54.538074
 H         -59.960449     -160.428223      -51.290154
 H         -59.414436     -161.838348      -50.392784
 H         -62.454460     -162.606323      -53.365818
 H         -62.173836     -160.882782      -53.202171
 H         -61.812607     -162.331009      -50.931736
 H         -60.859966     -163.352341      -51.790688
