20
 generated by VMD
 C         -78.433212     -210.168594      -76.336876
 N         -77.439758     -210.805603      -76.346413
 H         -80.251335     -212.038162      -74.673569
 H         -79.457542     -209.632645      -76.337090
 C         -79.935097     -212.625137      -73.821999
 C         -78.570366     -212.684906      -73.307838
 C         -80.956306     -213.622559      -73.310280
 C         -78.446655     -212.922333      -71.775215
 C         -80.889130     -213.490997      -71.763329
 C         -79.445915     -213.846863      -71.251144
 H         -77.826813     -211.923157      -73.647026
 H         -78.250099     -213.559814      -73.845451
 H         -81.969093     -213.271164      -73.647568
 H         -80.638321     -214.613663      -73.691582
 H         -78.487495     -212.035904      -71.099442
 H         -77.419601     -213.266815      -71.494469
 H         -81.564789     -214.266479      -71.366547
 H         -81.299675     -212.457291      -71.400848
 H         -79.446800     -213.874283      -70.154655
 H         -79.158211     -214.935165      -71.597466
