20
 generated by VMD
 C         -19.927431      -51.326229      -10.289652
 N         -20.664034      -51.193642       -9.448794
 H         -17.618721      -48.889385      -10.074803
 H         -18.962986      -51.696690      -11.016838
 C         -17.173861      -48.925621      -11.105268
 C         -16.380287      -50.092567      -11.647916
 C         -17.368483      -47.876286      -12.119755
 C         -16.441864      -50.496414      -13.161334
 C         -17.535770      -48.360218      -13.578303
 C         -16.383833      -49.268578      -14.022276
 H         -16.678730      -51.007359      -11.023711
 H         -15.336432      -49.793606      -11.474062
 H         -18.212465      -47.209496      -11.900290
 H         -16.505575      -47.177570      -12.044687
 H         -17.417936      -51.078262      -13.335437
 H         -15.556631      -51.122997      -13.445011
 H         -17.636019      -47.449497      -14.181702
 H         -18.512400      -48.963760      -13.567060
 H         -16.461666      -49.530025      -15.112793
 H         -15.399129      -48.688499      -13.967059
