20
 generated by VMD
 C         -26.856201      -71.726204      -17.570494
 N         -26.836147      -72.797867      -17.136278
 H         -24.524504      -69.780693      -18.583527
 H         -26.635473      -70.689865      -18.127480
 C         -24.888880      -70.192909      -19.532549
 C         -24.234133      -71.196632      -20.392258
 C         -25.756334      -69.287315      -20.268364
 C         -25.079878      -71.985497      -21.384264
 C         -26.581577      -70.022209      -21.313131
 C         -26.017872      -71.042015      -22.184942
 H         -23.736345      -72.113747      -19.843555
 H         -23.440201      -70.662224      -20.957199
 H         -26.411617      -68.807106      -19.583006
 H         -25.106382      -68.578110      -20.812757
 H         -25.621754      -72.804024      -20.776066
 H         -24.523483      -72.484344      -22.180105
 H         -26.999371      -69.277794      -21.927687
 H         -27.373613      -70.382111      -20.779202
 H         -26.758291      -71.698898      -22.752747
 H         -25.409534      -70.356979      -22.868870
