20
 generated by VMD
 C         -19.380444      -60.548771      -17.919811
 N         -19.988068      -59.540077      -17.848593
 H         -22.901337      -59.893463      -16.189018
 H         -18.871996      -61.508698      -17.708849
 C         -23.178038      -60.897350      -16.066906
 C         -23.405813      -61.642780      -17.333078
 C         -23.385509      -61.685181      -14.826638
 C         -22.639471      -62.934616      -17.341200
 C         -23.139795      -63.248020      -14.795946
 C         -23.144081      -63.859463      -16.219301
 H         -23.176405      -60.999603      -18.199846
 H         -24.494919      -61.763645      -17.400757
 H         -22.807266      -61.126953      -13.970122
 H         -24.500465      -61.699352      -14.625361
 H         -21.594168      -62.725117      -17.095751
 H         -22.490156      -63.454544      -18.319000
 H         -24.004126      -63.730541      -14.293663
 H         -22.147949      -63.351376      -14.339694
 H         -22.541580      -64.759605      -16.235422
 H         -24.095728      -64.181770      -16.611252
