20
 generated by VMD
 C         -59.387894     -168.992737      -55.831516
 N         -59.487675     -168.630096      -54.756557
 H         -63.035114     -170.043991      -56.151394
 H         -59.255886     -169.196716      -56.882664
 C         -62.983788     -169.009995      -56.480946
 C         -62.799904     -168.707092      -57.896877
 C         -63.185078     -167.858093      -55.629696
 C         -63.704395     -167.636856      -58.505676
 C         -64.163055     -166.773285      -56.172459
 C         -63.563808     -166.371841      -57.606476
 H         -63.018211     -169.671051      -58.539509
 H         -61.851620     -168.352921      -58.074692
 H         -63.563919     -168.331528      -54.571033
 H         -62.113342     -167.496155      -55.422394
 H         -64.717506     -167.961075      -58.589237
 H         -63.357998     -167.315811      -59.471245
 H         -64.059006     -165.889542      -55.595188
 H         -65.179802     -167.224731      -56.220734
 H         -64.212090     -165.563980      -58.056011
 H         -62.477814     -166.023300      -57.602398
