20
 generated by VMD
 C         -51.686932     -129.834930      -45.242893
 N         -51.690639     -129.870743      -46.367687
 H         -48.251862     -130.150055      -43.577820
 H         -51.581745     -129.729050      -44.176258
 C         -48.002949     -130.267075      -42.495667
 C         -47.969803     -131.638626      -41.890198
 C         -47.459076     -129.199921      -41.704582
 C         -46.666252     -131.971405      -41.042545
 C         -46.175705     -129.473587      -40.933498
 C         -46.328239     -130.801987      -40.074921
 H         -48.053635     -132.487045      -42.650566
 H         -48.774841     -131.738617      -41.226749
 H         -47.362320     -128.324570      -42.289188
 H         -48.306992     -128.892929      -40.978825
 H         -45.892185     -132.169189      -41.795155
 H         -47.019550     -132.894775      -40.634052
 H         -45.801167     -128.710419      -40.257935
 H         -45.420216     -129.708633      -41.619518
 H         -45.467579     -131.126160      -39.429008
 H         -47.084961     -130.714813      -39.286175
