20
 generated by VMD
 C         -18.125477      -48.565689       -7.348107
 N         -18.657053      -49.118744       -6.523667
 H         -16.201998      -48.067947      -10.200412
 H         -16.052908      -49.040859      -11.667913
 C         -16.253403      -48.074516      -11.269041
 C         -15.270640      -47.062298      -11.815554
 C         -17.690153      -47.659763      -11.694713
 C         -15.306413      -47.192245      -13.360579
 C         -17.837831      -47.360683      -13.203583
 C         -16.659267      -46.647419      -13.815506
 H         -14.203795      -47.024036      -11.478218
 H         -15.579417      -46.055660      -11.465311
 H         -18.439592      -48.411633      -11.364619
 H         -17.958115      -46.731239      -11.101483
 H         -15.167113      -48.242012      -13.646482
 H         -14.507634      -46.629749      -13.836668
 H         -18.765692      -46.747139      -13.376020
 H         -17.932568      -48.384659      -13.659551
 H         -16.723806      -46.746155      -14.867770
 H         -16.733387      -45.627102      -13.522804
