20
 generated by VMD
 C         -49.200073     -127.279037      -39.588276
 N         -50.356842     -127.283966      -39.596874
 H         -47.166969     -127.068726      -41.909584
 H         -48.133537     -127.228157      -39.515411
 C         -46.321938     -126.382889      -41.851860
 C         -45.448242     -127.049736      -40.897179
 C         -46.572983     -125.008369      -42.108452
 C         -44.379753     -126.037895      -40.359356
 C         -45.462914     -124.090744      -41.489861
 C         -44.843861     -124.599472      -40.134045
 H         -44.894634     -127.823723      -41.414013
 H         -45.878231     -127.677795      -40.081013
 H         -46.672981     -124.956726      -43.238121
 H         -47.580357     -124.757690      -41.802319
 H         -43.517868     -126.025093      -41.090324
 H         -43.941425     -126.519165      -39.449192
 H         -45.859303     -123.068985      -41.629303
 H         -44.672817     -123.984978      -42.225334
 H         -43.985989     -123.901222      -39.944778
 H         -45.522892     -124.495544      -39.331562
