20
 generated by VMD
 C         -51.873806     -129.977997      -45.230785
 N         -51.760052     -129.542709      -46.309898
 H         -48.557804     -130.102081      -43.144279
 H         -52.355305     -130.377930      -44.375816
 C         -47.899006     -130.130859      -42.389671
 C         -47.860394     -131.452911      -41.797348
 C         -47.278309     -128.960617      -41.663929
 C         -46.573830     -131.753693      -41.014420
 C         -46.075993     -129.336288      -40.843044
 C         -46.153625     -130.635895      -39.975849
 H         -48.119675     -132.184006      -42.680748
 H         -48.709087     -131.551010      -41.128036
 H         -47.051197     -128.275024      -42.482903
 H         -48.200703     -128.621078      -41.051304
 H         -45.774281     -131.944229      -41.812981
 H         -46.600590     -132.775330      -40.632050
 H         -45.742298     -128.497986      -40.113098
 H         -45.254364     -129.440155      -41.592785
 H         -45.116550     -130.867111      -39.663532
 H         -46.932472     -130.625244      -39.166439
