20
 generated by VMD
 C         -38.313614     -110.947197      -36.278881
 N         -38.152817     -109.814461      -36.405304
 H         -40.483936     -114.057373      -35.205276
 H         -38.464405     -112.043594      -36.252522
 C         -41.075027     -113.298851      -35.637970
 C         -41.981041     -113.739983      -36.738708
 C         -41.638855     -112.213242      -34.784058
 C         -43.281353     -114.152260      -36.134846
 C         -42.953220     -112.666924      -34.166233
 C         -43.974567     -113.047470      -35.300060
 H         -41.587254     -114.659088      -37.265953
 H         -42.139431     -112.954735      -37.485695
 H         -40.806778     -112.006882      -34.180336
 H         -41.725563     -111.452782      -35.497219
 H         -43.127705     -115.122795      -35.504131
 H         -43.936497     -114.583069      -36.968678
 H         -43.414223     -111.859451      -33.649826
 H         -42.842850     -113.531822      -33.578094
 H         -44.913857     -113.411064      -34.909122
 H         -44.154346     -112.039749      -35.976963
