20
 generated by VMD
 C         -15.123793      -46.060059       -6.662621
 N         -14.684569      -47.022507       -6.269511
 H         -15.592839      -44.504288       -9.200536
 H         -14.586923      -44.644833      -10.597758
 C         -15.616948      -44.708553      -10.283434
 C         -16.471493      -43.589584      -11.012648
 C         -16.202337      -46.093319      -10.512384
 C         -16.619091      -43.873310      -12.533850
 C         -16.462299      -46.329124      -11.990507
 C         -17.276655      -45.248634      -12.728288
 H         -15.890162      -42.648556      -10.888562
 H         -17.414696      -43.526543      -10.489003
 H         -15.515801      -46.855122      -10.153443
 H         -17.119675      -46.235126       -9.973314
 H         -15.624009      -43.896366      -13.015019
 H         -17.237661      -43.077820      -12.924134
 H         -16.899809      -47.322594      -12.189383
 H         -15.524873      -46.314751      -12.421734
 H         -17.327284      -45.480927      -13.824569
 H         -18.274075      -45.252182      -12.335168
