20
 generated by VMD
 C         -19.861261      -50.633862      -10.279121
 N         -20.320412      -51.222519       -9.400211
 H         -17.391956      -48.953266       -9.934772
 H         -19.598900      -49.978119      -11.072331
 C         -17.277767      -49.069359      -11.070369
 C         -16.113436      -49.885323      -11.630003
 C         -17.532381      -47.892082      -11.966003
 C         -16.192896      -50.324764      -13.101134
 C         -17.617062      -48.306763      -13.464566
 C         -16.552042      -49.226719      -14.073605
 H         -16.043879      -50.794186      -11.023316
 H         -15.224769      -49.265266      -11.540771
 H         -18.504517      -47.514187      -11.632981
 H         -16.765078      -47.130920      -11.718206
 H         -17.005024      -51.017689      -13.147271
 H         -15.281362      -50.800232      -13.343689
 H         -17.583960      -47.385086      -14.129655
 H         -18.543161      -48.749825      -13.591292
 H         -16.800308      -49.571785      -15.058764
 H         -15.661417      -48.654545      -14.238227
