20
 generated by VMD
 C         -59.763256     -157.497391      -56.446190
 N         -60.633766     -157.276825      -57.155830
 H         -59.898441     -157.191986      -53.145718
 H         -59.013424     -157.753647      -55.681995
 C         -59.254826     -157.863785      -52.587074
 C         -57.983822     -157.428085      -51.969372
 C         -59.390293     -159.350983      -52.778385
 C         -57.371906     -158.306152      -50.818878
 C         -58.964870     -160.213486      -51.606339
 C         -57.510704     -159.757355      -51.197468
 H         -58.137646     -156.427872      -51.724281
 H         -57.330788     -157.353622      -52.847351
 H         -60.434784     -159.687408      -53.119347
 H         -58.635487     -159.562347      -53.621033
 H         -57.771996     -157.952103      -49.844803
 H         -56.371998     -158.046097      -50.678127
 H         -59.016022     -161.276566      -51.593075
 H         -59.696262     -159.930069      -50.853245
 H         -57.167145     -160.396332      -50.341698
 H         -56.733677     -159.904755      -51.992226
