20
 generated by VMD
 C         -21.959318      -55.362244      -17.521822
 N         -21.422155      -55.806988      -18.467443
 H         -21.353842      -56.797012      -14.104712
 H         -22.849548      -54.879848      -16.858982
 C         -21.132687      -57.863995      -14.121566
 C         -21.372503      -58.776924      -12.940417
 C         -21.015762      -58.283241      -15.510715
 C         -20.847342      -60.185524      -13.263349
 C         -20.252962      -59.744713      -15.667749
 C         -19.748648      -60.311062      -14.294728
 H         -22.392897      -58.713558      -12.606077
 H         -20.818146      -58.372524      -12.136362
 H         -22.043875      -58.364578      -16.027149
 H         -20.405146      -57.482265      -15.962639
 H         -21.718060      -60.663120      -13.790706
 H         -20.681271      -60.824112      -12.371724
 H         -19.518118      -59.652233      -16.508953
 H         -21.013119      -60.414349      -16.087673
 H         -19.294865      -61.312874      -14.382062
 H         -18.993168      -59.604561      -13.993841
