20
 generated by VMD
 C         -48.434929     -126.170815      -38.675240
 N         -48.974209     -127.161285      -38.575813
 H         -46.182842     -123.422531      -38.231876
 H         -47.876095     -125.292641      -39.038597
 C         -45.494308     -123.260368      -39.120556
 C         -44.434647     -124.417938      -39.573223
 C         -45.583454     -122.061043      -40.046837
 C         -44.373234     -124.568878      -41.068398
 C         -45.532246     -122.371101      -41.522537
 C         -44.202290     -123.189865      -41.762760
 H         -44.493469     -125.357773      -39.059208
 H         -43.432774     -123.931129      -39.202892
 H         -46.607197     -121.664108      -39.897346
 H         -45.019066     -121.298576      -39.602005
 H         -45.187584     -125.155708      -41.540245
 H         -43.512470     -125.284790      -41.237629
 H         -45.520996     -121.435081      -42.068871
 H         -46.335770     -122.870087      -42.004696
 H         -44.001488     -123.397247      -42.826180
 H         -43.320911     -122.612976      -41.405724
