20
 generated by VMD
 C         -42.088085     -101.579414      -33.321095
 N         -41.069317     -101.697449      -33.865715
 H         -38.842937     -103.502312      -32.758076
 H         -42.970959     -101.334106      -32.841198
 C         -37.937721     -103.669472      -32.155678
 C         -36.788403     -103.366310      -33.148907
 C         -37.574146     -104.126144      -30.745501
 C         -35.608475     -102.819000      -32.388691
 C         -36.651085     -103.224533      -30.098362
 C         -35.396671     -103.282372      -30.984325
 H         -37.140636     -102.613464      -33.913139
 H         -36.678017     -104.316429      -33.663410
 H         -38.498508     -104.135048      -30.225267
 H         -37.154587     -105.149597      -30.905361
 H         -35.446274     -101.715378      -32.324715
 H         -34.695896     -103.230827      -32.925941
 H         -36.527851     -103.447067      -29.040995
 H         -36.968639     -102.196991      -30.187826
 H         -34.605221     -102.570129      -30.605312
 H         -35.008186     -104.354057      -30.915367
