20
 generated by VMD
 C         -59.950569     -152.492416      -50.993797
 N         -60.914837     -152.922943      -51.563713
 H         -56.952515     -152.820953      -49.385979
 H         -59.108799     -152.038208      -50.390255
 C         -56.057026     -152.211502      -49.504852
 C         -54.659958     -152.748581      -49.529274
 C         -56.097557     -150.678589      -49.728825
 C         -53.816635     -152.365128      -50.728565
 C         -55.414909     -150.187714      -51.022945
 C         -53.922108     -150.869080      -51.078209
 H         -54.734234     -153.842087      -49.539043
 H         -54.107632     -152.618057      -48.649269
 H         -57.185619     -150.372772      -49.734440
 H         -55.607189     -150.348526      -48.787548
 H         -54.205208     -152.992599      -51.543644
 H         -52.812134     -152.823349      -50.692505
 H         -55.195110     -149.173004      -50.995903
 H         -56.044834     -150.475906      -51.993443
 H         -53.453930     -150.663666      -52.023750
 H         -53.165199     -150.311523      -50.352219
