20
 generated by VMD
 C         -13.429507      -45.139133       -5.944337
 N         -14.348832      -44.644569       -6.352511
 H         -15.187242      -44.452618       -9.018332
 H         -14.331938      -43.797722      -10.480254
 C         -15.251028      -44.289547      -10.068933
 C         -16.476431      -43.378040      -10.252064
 C         -15.620591      -45.686245      -10.687294
 C         -16.975086      -43.134674      -11.697727
 C         -16.236979      -45.483440      -12.083646
 C         -17.332045      -44.434811      -12.316199
 H         -16.165091      -42.469223       -9.739448
 H         -17.402575      -43.784439       -9.719352
 H         -14.743111      -46.390877      -10.714902
 H         -16.457870      -46.046848      -10.053574
 H         -16.239592      -42.605076      -12.291475
 H         -17.845772      -42.486191      -11.606413
 H         -16.664640      -46.410328      -12.423372
 H         -15.378129      -45.234524      -12.823989
 H         -17.569761      -44.305260      -13.350060
 H         -18.177172      -44.899921      -11.811212
