20
 generated by VMD
 C         -52.455978     -146.405731      -44.207451
 N         -51.710640     -146.542725      -45.101276
 H         -53.703381     -146.048050      -47.216034
 H         -53.107658     -146.337036      -43.389420
 C         -53.974239     -145.180969      -47.828777
 C         -52.870224     -144.932709      -48.850155
 C         -54.760952     -143.863739      -47.591042
 C         -53.474064     -144.342758      -50.098183
 C         -55.422413     -143.251221      -48.864582
 C         -54.221680     -143.045410      -49.859894
 H         -52.321121     -145.893646      -48.986401
 H         -52.043980     -144.154480      -48.443916
 H         -55.417015     -143.991226      -46.770695
 H         -54.080814     -143.204971      -47.182297
 H         -54.078796     -144.985641      -50.795826
 H         -52.604549     -144.167999      -50.774593
 H         -56.175850     -142.454895      -48.647270
 H         -55.984707     -144.066330      -49.349831
 H         -54.691166     -142.607986      -50.837040
 H         -53.557766     -142.285355      -49.406784
