20
 generated by VMD
 C          -9.291058      -24.459373        1.247554
 N          -9.688911      -25.333076        1.837413
 H          -7.181072      -23.243593       -0.684814
 H          -8.446466      -22.602274       -1.477653
 C          -7.434652      -22.982916       -1.689569
 C          -7.503876      -24.291967       -2.544105
 C          -6.627492      -21.925951       -2.352457
 C          -7.910203      -24.042385       -4.005289
 C          -7.067250      -21.749226       -3.794034
 C          -7.040673      -23.012783       -4.585121
 H          -8.142004      -24.945034       -2.033787
 H          -6.443802      -24.663677       -2.525449
 H          -6.727791      -20.948637       -1.871942
 H          -5.570613      -22.227118       -2.432109
 H          -8.911004      -23.612598       -3.947662
 H          -7.882952      -24.963415       -4.571279
 H          -6.474127      -20.970901       -4.289300
 H          -8.087680      -21.423372       -3.701937
 H          -7.338531      -22.865770       -5.661234
 H          -5.997308      -23.377045       -4.542403
