20
 generated by VMD
 C         -67.463905     -189.611176      -66.866829
 N         -66.480812     -190.018478      -66.330429
 H         -70.312897     -190.819794      -65.784378
 H         -68.229004     -189.285706      -67.550026
 C         -71.000633     -190.304321      -65.183372
 C         -72.128120     -190.988373      -64.669670
 C         -70.398018     -189.061203      -64.545700
 C         -73.229431     -190.130737      -64.109825
 C         -71.474892     -188.272095      -63.870068
 C         -72.594666     -189.031815      -63.136391
 H         -71.892181     -191.801483      -63.860359
 H         -72.506905     -191.442856      -65.596321
 H         -69.658859     -189.334946      -63.756931
 H         -69.925728     -188.415543      -65.172630
 H         -73.983444     -190.796204      -63.630939
 H         -73.611328     -189.557236      -64.944000
 H         -71.932777     -187.657806      -64.604164
 H         -71.031952     -187.559845      -63.192513
 H         -72.206726     -189.492172      -62.148830
 H         -73.369560     -188.334473      -62.859756
