20
 generated by VMD
 C         -18.387163      -48.976685       -7.363369
 N         -19.145664      -49.770088       -7.579558
 H         -16.091642      -47.589561      -10.066199
 H         -16.481777      -49.022472      -10.994240
 C         -16.353451      -47.916721      -11.062642
 C         -15.147423      -47.593254      -12.004372
 C         -17.651470      -47.238117      -11.581563
 C         -15.450780      -47.970387      -13.459250
 C         -17.984467      -47.588135      -13.055426
 C         -16.773239      -47.385460      -13.957626
 H         -14.326133      -48.196568      -11.587563
 H         -14.861903      -46.544559      -12.080237
 H         -18.484751      -47.621662      -10.964681
 H         -17.513838      -46.151337      -11.481992
 H         -15.528279      -49.064503      -13.513379
 H         -14.618921      -47.566517      -14.062271
 H         -18.897102      -47.115955      -13.373678
 H         -18.243774      -48.708790      -12.962602
 H         -17.036804      -47.828152      -14.941530
 H         -16.608944      -46.307487      -14.169820
