20
 generated by VMD
 C         -40.756554     -102.762581      -34.934761
 N         -41.491478     -102.479256      -35.775936
 H         -39.765667     -104.449493      -32.896339
 H         -40.354313     -102.990051      -33.916843
 C         -38.875065     -104.749527      -32.376934
 C         -37.699867     -104.054321      -32.963154
 C         -38.645462     -105.937294      -31.440201
 C         -36.498848     -104.034599      -31.924114
 C         -37.348621     -105.840294      -30.546024
 C         -36.141113     -105.366379      -31.241640
 H         -37.991734     -102.976501      -33.205055
 H         -37.289349     -104.429108      -33.893543
 H         -39.607990     -105.941231      -30.750433
 H         -38.602654     -106.930862      -31.854509
 H         -36.654537     -103.299599      -31.105705
 H         -35.566147     -103.716789      -32.472935
 H         -37.231964     -106.877258      -30.052607
 H         -37.423096     -105.162498      -29.741869
 H         -35.239597     -105.337013      -30.563810
 H         -35.836983     -106.053986      -32.075237
