20
 generated by VMD
 C         -21.711451      -52.333675      -11.417836
 N         -21.670128      -52.919010      -10.357181
 H         -20.016766      -51.507812      -14.031540
 H         -21.999517      -51.932095      -12.329227
 C         -18.980593      -51.484253      -13.681132
 C         -18.006781      -51.857056      -14.784431
 C         -18.488909      -51.303967      -12.272253
 C         -16.494915      -51.937130      -14.428585
 C         -17.004137      -51.115978      -12.199944
 C         -16.210230      -52.183609      -12.992488
 H         -18.162428      -51.103020      -15.609083
 H         -18.346628      -52.758892      -15.263289
 H         -18.922249      -50.431801      -11.777310
 H         -18.868685      -52.200878      -11.718944
 H         -16.012928      -50.966675      -14.719220
 H         -15.985307      -52.733051      -15.002922
 H         -16.686211      -51.088398      -11.095774
 H         -16.775412      -50.162426      -12.594435
 H         -15.102244      -52.190914      -12.825018
 H         -16.682474      -53.151047      -12.728565
