20
 generated by VMD
 C         -57.794449     -164.908829      -56.514412
 N         -57.246544     -164.154221      -57.206707
 H         -60.008724     -164.795319      -54.247604
 H         -58.205132     -165.634384      -55.861229
 C         -60.984695     -164.966782      -54.664543
 C         -61.926277     -165.776306      -53.938213
 C         -61.535458     -164.188965      -55.787228
 C         -63.450188     -165.740097      -54.168995
 C         -63.013531     -163.856918      -55.812469
 C         -63.731949     -165.149490      -55.558109
 H         -61.731857     -165.671219      -52.861656
 H         -61.553455     -166.773605      -54.051342
 H         -60.905384     -163.318741      -55.726856
 H         -61.129841     -164.787704      -56.646065
 H         -63.887920     -165.032990      -53.476719
 H         -63.988659     -166.641769      -54.123825
 H         -63.281105     -163.468094      -56.717018
 H         -63.294109     -163.047012      -55.122826
 H         -64.823418     -165.079865      -55.858948
 H         -63.305435     -165.937897      -56.257397
