20
 generated by VMD
 C         -19.421026      -60.527607      -17.903667
 N         -19.951441      -59.521111      -17.863998
 H         -22.863703      -59.794079      -16.073542
 H         -18.803413      -61.427563      -17.797543
 C         -23.188190      -60.871624      -16.046457
 C         -23.413942      -61.607620      -17.355328
 C         -23.339699      -61.677898      -14.818376
 C         -22.636740      -62.957020      -17.341379
 C         -23.143755      -63.252308      -14.793706
 C         -23.123615      -63.845409      -16.192036
 H         -23.303413      -60.979336      -18.230171
 H         -24.459026      -61.835747      -17.580856
 H         -22.949171      -61.200539      -14.001923
 H         -24.394220      -61.692863      -14.622021
 H         -21.537914      -62.738327      -17.155504
 H         -22.670515      -63.452961      -18.327835
 H         -24.015715      -63.691540      -14.318408
 H         -22.217487      -63.451626      -14.232407
 H         -22.479019      -64.733223      -16.128080
 H         -24.100895      -64.278419      -16.511293
