20
 generated by VMD
 C         -12.790563      -31.222221       -8.245125
 N         -12.333220      -30.237978       -8.008865
 H         -11.759274      -33.529472       -7.372320
 H         -12.490359      -32.905956       -5.959489
 C         -11.719772      -33.602066       -6.302750
 C         -10.330071      -33.358387       -5.754113
 C         -12.218051      -35.038975       -6.022527
 C         -10.362661      -33.689411       -4.220487
 C         -12.183285      -35.340763       -4.540607
 C         -10.899199      -35.057159       -3.907823
 H         -10.038594      -32.324562       -5.911297
 H          -9.579280      -33.996281       -6.216684
 H         -13.261953      -35.176361       -6.320123
 H         -11.632481      -35.846981       -6.513000
 H         -11.079056      -32.951263       -3.836273
 H          -9.334264      -33.525673       -3.936308
 H         -12.444796      -36.350327       -4.432670
 H         -12.954370      -34.678230       -4.005119
 H         -11.026884      -35.246525       -2.843872
 H         -10.143727      -35.806057       -4.243867
