20
 generated by VMD
 C         -30.150066      -89.521965      -25.809069
 N         -29.214655      -90.235069      -25.975105
 H         -32.278152      -91.230148      -26.427748
 H         -30.995020      -89.026337      -25.498426
 C         -32.869438      -90.776352      -27.216043
 C         -34.291142      -91.286476      -27.301451
 C         -32.491879      -89.524216      -28.009649
 C         -35.195316      -90.108719      -26.906061
 C         -33.548828      -88.415024      -27.814100
 C         -35.014091      -88.887032      -27.837328
 H         -34.511314      -92.097778      -26.565664
 H         -34.654594      -91.567230      -28.265438
 H         -31.517351      -89.188469      -27.779413
 H         -32.475510      -90.030258      -28.954775
 H         -35.162762      -89.713524      -25.913858
 H         -36.290962      -90.331253      -26.945576
 H         -33.427994      -87.646034      -28.607122
 H         -33.348663      -87.847183      -26.874882
 H         -35.465199      -88.013702      -27.360495
 H         -35.379498      -88.996887      -28.775757
