20
 generated by VMD
 C         -22.401072      -67.638153      -16.164099
 N         -21.257475      -67.506500      -16.013220
 H         -23.950331      -65.547195      -18.060963
 H         -23.512457      -67.716675      -16.395769
 C         -24.475904      -66.395256      -18.594683
 C         -23.863386      -66.868607      -19.873436
 C         -25.966257      -66.458458      -18.544514
 C         -24.518749      -68.108727      -20.424637
 C         -26.445831      -67.867210      -18.904198
 C         -26.062346      -68.258507      -20.324289
 H         -22.835678      -67.130142      -19.865242
 H         -23.907322      -66.022484      -20.644840
 H         -26.264751      -66.155861      -17.547688
 H         -26.349281      -65.891571      -19.435377
 H         -24.177509      -68.977692      -19.807426
 H         -24.242542      -68.300896      -21.525219
 H         -27.514343      -67.816238      -18.804243
 H         -26.053280      -68.436577      -18.035297
 H         -26.491926      -69.198830      -20.725542
 H         -26.491571      -67.545074      -21.085033
