20
 generated by VMD
 C         -61.098072     -155.574234      -54.915176
 N         -60.963600     -156.127640      -53.847549
 H         -59.101292     -155.177078      -51.737617
 H         -61.408482     -155.228714      -55.882145
 C         -58.043083     -155.285156      -51.520535
 C         -57.438854     -154.548859      -50.419498
 C         -57.152901     -155.800064      -52.617294
 C         -56.301216     -155.144897      -49.749878
 C         -55.914856     -156.456787      -51.838963
 C         -55.241592     -155.591568      -50.744827
 H         -58.168972     -154.456970      -49.579826
 H         -57.258709     -153.559570      -50.760220
 H         -57.461555     -156.747803      -53.139339
 H         -56.879330     -155.026779      -53.295677
 H         -56.574520     -155.959625      -49.043472
 H         -55.832397     -154.402573      -48.928841
 H         -54.981659     -156.793884      -52.464394
 H         -56.271801     -157.420258      -51.500519
 H         -54.389969     -156.186417      -50.338734
 H         -54.861774     -154.698883      -51.289722
