20
 generated by VMD
 C         -50.050976     -142.937912      -45.498680
 N         -48.894531     -143.172272      -45.289791
 H         -51.830799     -139.976212      -45.740585
 H         -51.081455     -142.578308      -45.634693
 C         -52.669403     -140.465149      -46.253151
 C         -52.039642     -140.832809      -47.569309
 C         -54.143230     -140.544373      -45.978870
 C         -52.807377     -142.054077      -48.180073
 C         -54.757168     -141.745285      -46.614155
 C         -54.357819     -141.878922      -48.107353
 H         -50.920322     -141.140305      -47.567276
 H         -52.190331     -139.907410      -48.179314
 H         -54.181885     -140.499527      -44.883556
 H         -54.714458     -139.636398      -46.295223
 H         -52.613834     -143.025574      -47.512451
 H         -52.397179     -142.286743      -49.240864
 H         -55.851246     -141.640503      -46.417747
 H         -54.490234     -142.749710      -46.225746
 H         -54.870987     -142.856079      -48.496834
 H         -54.659103     -140.903961      -48.703011
