20
 generated by VMD
 C         -11.791201      -39.543266       -6.997344
 N         -10.849643      -39.663361       -6.372622
 H         -13.164452      -40.840828       -9.046955
 H         -14.472160      -39.808510       -9.130131
 C         -14.211158      -40.868217       -9.166166
 C         -14.817331      -41.728474       -8.025504
 C         -14.572393      -41.429470      -10.588854
 C         -16.330383      -41.894157       -8.117949
 C         -16.101894      -41.468155      -10.708420
 C         -16.770668      -42.305679       -9.564047
 H         -14.563268      -41.174923       -7.133345
 H         -14.326335      -42.731377       -7.968968
 H         -14.177348      -40.768230      -11.350695
 H         -14.180267      -42.513409      -10.683471
 H         -16.850065      -40.963223       -7.831356
 H         -16.584059      -42.702164       -7.438061
 H         -16.504930      -41.877987      -11.709267
 H         -16.494926      -40.504753      -10.648713
 H         -17.826431      -42.239071       -9.617379
 H         -16.503420      -43.328148       -9.778044
