20
 generated by VMD
 C         -10.406774      -25.334600       -0.792108
 N         -11.291337      -24.693089       -0.556231
 H          -6.561727      -25.376976       -0.957923
 H          -8.234424      -25.385626       -1.314748
 C          -7.270072      -25.141960       -1.768776
 C          -6.969585      -26.064585       -2.983116
 C          -6.998853      -23.708994       -2.030236
 C          -7.899091      -25.483210       -4.119959
 C          -7.868365      -23.174383       -3.141297
 C          -7.667370      -23.980055       -4.432829
 H          -7.326913      -27.076523       -2.730887
 H          -5.974041      -25.941544       -3.273199
 H          -7.232002      -23.127407       -1.127413
 H          -5.890638      -23.642963       -2.268052
 H          -8.971127      -25.619083       -3.900710
 H          -7.560312      -26.022373       -5.025728
 H          -7.652613      -22.140718       -3.408707
 H          -8.934036      -23.195944       -2.845174
 H          -8.457404      -23.660198       -5.108805
 H          -6.652049      -23.686588       -4.841525
