20
 generated by VMD
 C         -60.665405     -155.510559      -54.642391
 N         -61.115223     -156.507431      -54.365807
 H         -59.217289     -155.087006      -51.772598
 H         -60.110188     -154.575882      -54.750793
 C         -58.178978     -155.351837      -51.546280
 C         -57.487278     -154.619217      -50.432549
 C         -57.376034     -155.999435      -52.596928
 C         -56.288418     -155.251038      -49.813938
 C         -56.117840     -156.732239      -51.871841
 C         -55.394970     -155.767883      -50.842888
 H         -58.219391     -154.354187      -49.757626
 H         -57.170078     -153.621307      -50.757862
 H         -58.027401     -156.772034      -52.955872
 H         -56.882126     -155.537628      -53.495834
 H         -56.635410     -156.040680      -49.093468
 H         -55.636448     -154.604797      -49.268551
 H         -55.405296     -157.151398      -52.543404
 H         -56.537933     -157.603424      -51.283028
 H         -54.581264     -156.304733      -50.414982
 H         -54.934990     -154.881165      -51.434261
