20
 generated by VMD
 C         -60.708645     -153.538834      -51.730663
 N         -61.419170     -154.373856      -51.894508
 H         -57.542164     -153.982971      -52.126156
 H         -60.099422     -152.696396      -51.435390
 C         -56.773415     -153.482422      -51.542404
 C         -56.651276     -153.758209      -50.073246
 C         -55.979820     -152.408279      -52.134239
 C         -55.161022     -153.937271      -49.770550
 C         -54.494892     -152.447968      -51.605782
 C         -54.239998     -152.773895      -50.109364
 H         -57.108192     -154.791351      -49.987617
 H         -57.142025     -153.000015      -49.413746
 H         -55.941750     -152.539169      -53.264324
 H         -56.434387     -151.431061      -51.846527
 H         -54.825676     -154.866684      -50.374901
 H         -55.228821     -154.084427      -48.672169
 H         -54.070065     -151.415466      -51.876534
 H         -53.771568     -153.140060      -52.015903
 H         -53.195580     -152.962433      -50.010967
 H         -54.640079     -151.908081      -49.396534
