20
 generated by VMD
 C         -11.337330      -33.729797       -8.447941
 N         -10.857461      -33.286438       -9.349838
 H         -11.740815      -36.697556       -8.066406
 H         -12.217049      -36.173557       -6.441611
 C         -12.326148      -37.002537       -7.194919
 C         -12.019964      -38.255394       -6.491959
 C         -13.789872      -36.939827       -7.641669
 C         -12.895293      -38.562592       -5.345249
 C         -14.706462      -37.159317       -6.452607
 C         -14.359793      -38.494446       -5.771772
 H         -10.969651      -38.235237       -6.219884
 H         -12.129298      -39.082451       -7.193997
 H         -13.987050      -36.014637       -8.136818
 H         -13.892920      -37.796844       -8.382636
 H         -12.669580      -37.855526       -4.571357
 H         -12.752726      -39.532051       -4.856061
 H         -15.732230      -37.158672       -6.692316
 H         -14.524239      -36.372021       -5.634643
 H         -15.034039      -38.641293       -4.907322
 H         -14.560328      -39.354031       -6.416965
