20
 generated by VMD
 C         -12.335436      -32.206436       -8.610141
 N         -12.741479      -31.265036       -9.040733
 H         -10.523862      -34.377983       -7.180912
 H         -11.412617      -33.706802       -5.935498
 C         -11.118322      -34.650982       -6.367178
 C         -10.364656      -35.391716       -5.247226
 C         -12.404208      -35.286690       -6.874791
 C         -11.272319      -35.663898       -4.075271
 C         -13.262439      -35.618423       -5.671154
 C         -12.580583      -36.360855       -4.487144
 H          -9.367185      -34.934738       -5.080339
 H         -10.089174      -36.321693       -5.693778
 H         -12.970994      -34.705334       -7.629553
 H         -12.129395      -36.202763       -7.437667
 H         -11.452550      -34.715282       -3.545292
 H         -10.837838      -36.271667       -3.226713
 H         -14.189852      -36.194584       -5.974433
 H         -13.688296      -34.716888       -5.229808
 H         -13.318568      -36.422401       -3.619152
 H         -12.310888      -37.383476       -4.774026
