20
 generated by VMD
 C         -11.122500      -33.168354       -8.588418
 N         -10.706716      -33.939690       -9.274123
 H         -12.878470      -34.181019       -6.661488
 H         -12.992327      -34.867352       -5.016129
 C         -12.957031      -35.076347       -6.104905
 C         -11.678535      -35.994038       -6.235282
 C         -14.137672      -35.859272       -6.613769
 C         -11.763100      -37.365074       -5.577333
 C         -14.301522      -37.147045       -5.832469
 C         -13.063132      -38.074574       -5.913038
 H         -10.780069      -35.438393       -5.837526
 H         -11.473446      -36.093868       -7.301330
 H         -15.101314      -35.293133       -6.646483
 H         -13.991589      -36.060974       -7.699296
 H         -11.534437      -37.271740       -4.456592
 H         -10.906642      -37.951042       -5.959303
 H         -15.058989      -37.651001       -6.363695
 H         -14.748398      -37.018745       -4.792015
 H         -13.300332      -38.928940       -5.252731
 H         -12.954026      -38.535664       -6.861271
