20
 generated by VMD
 C         -76.741463     -203.239334      -66.703506
 N         -77.470520     -203.781601      -65.973938
 H         -75.180687     -200.717270      -68.154953
 H         -75.910469     -202.697266      -67.131821
 C         -74.735619     -199.989288      -68.872437
 C         -74.890358     -198.462555      -68.798424
 C         -73.656281     -200.423492      -69.789253
 C         -73.423988     -197.814514      -68.801956
 C         -73.168419     -199.492249      -70.863274
 C         -72.816994     -198.106049      -70.185196
 H         -75.391823     -198.238159      -67.867073
 H         -75.539192     -198.063599      -69.551498
 H         -72.849289     -200.691299      -69.142258
 H         -74.091682     -201.243713      -70.404724
 H         -72.776215     -198.362488      -68.118179
 H         -73.506538     -196.745728      -68.591110
 H         -73.882233     -199.422470      -71.660202
 H         -72.391266     -199.940903      -71.498093
 H         -71.697929     -198.052597      -70.155174
 H         -73.169075     -197.215744      -70.845467
