20
 generated by VMD
 C         -58.802353     -161.005417      -56.718582
 N         -58.560909     -160.050064      -57.362518
 H         -58.833164     -163.868652      -54.905891
 H         -59.093277     -161.831314      -56.087723
 C         -59.731544     -163.477051      -54.400040
 C         -59.621399     -163.330322      -52.910431
 C         -61.104954     -163.406113      -54.968353
 C         -60.363541     -162.078003      -52.461437
 C         -61.915977     -162.355774      -54.314785
 C         -61.833534     -162.309479      -52.824348
 H         -58.565338     -163.043213      -52.761536
 H         -60.111118     -164.273392      -52.433884
 H         -61.035328     -163.125214      -55.963451
 H         -61.537895     -164.419403      -54.921913
 H         -59.880119     -161.075195      -52.781475
 H         -60.376976     -162.016708      -51.415100
 H         -63.014145     -162.474777      -54.350403
 H         -61.823196     -161.380432      -54.941647
 H         -62.597916     -161.653015      -52.398987
 H         -62.082615     -163.389557      -52.516300
