20
 generated by VMD
 C         -68.206879     -179.410675      -58.404892
 N         -67.348938     -178.958267      -57.782894
 H         -66.161415     -176.455704      -59.069141
 H         -69.039558     -179.746399      -58.962410
 C         -65.469772     -175.753662      -59.508003
 C         -66.060562     -174.742783      -60.434967
 C         -63.981201     -176.007050      -59.669369
 C         -65.227760     -173.478851      -60.411358
 C         -63.173492     -174.677505      -59.657192
 C         -63.768791     -173.633179      -60.623344
 H         -67.100838     -174.383942      -60.257221
 H         -66.140480     -175.315598      -61.332207
 H         -63.604614     -176.715988      -58.889431
 H         -63.794319     -176.472031      -60.611412
 H         -65.222672     -172.901459      -59.410553
 H         -65.482971     -172.810547      -61.287964
 H         -62.142212     -174.893417      -59.869476
 H         -63.255013     -174.119858      -58.654655
 H         -63.286709     -172.620682      -60.697002
 H         -63.635609     -174.013641      -61.612019
