20
 generated by VMD
 C         -79.385475     -205.486649      -70.889763
 N         -80.491112     -205.798569      -71.246651
 H         -76.762146     -203.243774      -71.144325
 H         -78.383995     -205.156830      -70.679031
 C         -76.083755     -203.233170      -70.309853
 C         -75.258850     -202.026184      -70.069298
 C         -75.718018     -204.516891      -69.556412
 C         -73.945358     -202.326019      -70.606857
 C         -74.293427     -204.397858      -69.093803
 C         -73.259483     -203.534988      -69.854622
 H         -75.274216     -201.757599      -68.986145
 H         -75.707588     -201.215027      -70.612030
 H         -76.374268     -204.991440      -68.860550
 H         -75.756477     -205.312592      -70.287354
 H         -73.314156     -201.421265      -70.681488
 H         -74.031502     -202.644608      -71.634621
 H         -73.957687     -205.385056      -69.074913
 H         -74.212685     -204.063461      -67.991631
 H         -72.422844     -203.252121      -69.222153
 H         -72.810989     -204.051407      -70.688568
