20
 generated by VMD
 C         -47.905903     -134.075897      -47.561333
 N         -48.097775     -133.409653      -48.565056
 H         -49.551510     -134.037506      -43.951874
 H         -48.006088     -134.828827      -46.819870
 C         -50.147530     -134.972168      -43.779594
 C         -50.257568     -136.190857      -44.549210
 C         -51.066544     -134.783066      -42.554604
 C         -50.593563     -137.477325      -43.817585
 C         -51.443016     -136.129501      -41.807682
 C         -51.703056     -137.298538      -42.725098
 H         -49.354053     -136.424088      -45.102745
 H         -51.072037     -136.019012      -45.307728
 H         -50.495739     -134.084061      -41.920944
 H         -51.944191     -134.304337      -42.831562
 H         -49.749691     -137.764328      -43.228230
 H         -50.761623     -138.288666      -44.585957
 H         -52.369705     -136.042145      -41.196831
 H         -50.554962     -136.253479      -41.052155
 H         -51.887432     -138.228119      -42.002499
 H         -52.612801     -136.983627      -43.163910
