20
 generated by VMD
 C         -58.793858     -168.495941      -54.958027
 N         -57.689983     -168.717361      -54.942604
 H         -61.985775     -168.554413      -55.797211
 H         -59.847996     -168.346069      -55.113155
 C         -62.475052     -167.768921      -56.280342
 C         -62.671310     -167.948242      -57.714195
 C         -62.785164     -166.461838      -55.702103
 C         -64.167290     -167.578369      -58.069225
 C         -64.310799     -166.211212      -55.993385
 C         -64.515236     -166.203461      -57.543667
 H         -62.575928     -168.991165      -57.873959
 H         -61.810677     -167.408539      -58.247921
 H         -62.732819     -166.656418      -54.622463
 H         -62.161530     -165.501526      -55.951740
 H         -64.738861     -168.363297      -57.605854
 H         -64.135857     -167.664215      -59.114674
 H         -64.549973     -165.284531      -55.545479
 H         -64.963432     -166.910294      -55.638508
 H         -65.590218     -166.017456      -57.698029
 H         -63.915604     -165.417542      -57.960274
