20
 generated by VMD
 C          -1.508496      -11.363457        1.585147
 N          -1.116378      -12.155254        0.896933
 H          -3.655939      -13.332489        0.273583
 H          -5.279616      -12.875278        0.567095
 C          -4.528533      -13.596618        0.801096
 C          -4.243437      -13.792500        2.333843
 C          -5.017206      -14.902160        0.186222
 C          -5.308999      -14.620540        3.070972
 C          -6.109477      -15.597784        0.878243
 C          -5.675337      -15.904590        2.325902
 H          -4.050141      -12.813217        2.875962
 H          -3.241707      -14.326344        2.481807
 H          -5.200321      -14.818180       -0.833016
 H          -4.147643      -15.496884        0.198925
 H          -6.258973      -14.008507        3.204500
 H          -5.022559      -14.911449        4.108005
 H          -6.367062      -16.570023        0.399272
 H          -7.066746      -15.077266        0.942669
 H          -6.420143      -16.451849        2.885554
 H          -4.812293      -16.529520        2.338414
