20
 generated by VMD
 C         -77.199776     -203.627350      -66.975235
 N         -77.993263     -204.369919      -66.569695
 H         -75.910553     -200.656433      -68.678429
 H         -76.582642     -203.027283      -67.570412
 C         -74.983284     -200.181473      -69.104324
 C         -74.660477     -198.764328      -68.577652
 C         -73.726974     -200.915161      -69.607658
 C         -73.590393     -197.932892      -69.265358
 C         -72.835106     -200.088943      -70.489853
 C         -73.174255     -198.641373      -70.681015
 H         -74.257805     -198.934998      -67.628250
 H         -75.580421     -198.279709      -68.431244
 H         -73.252914     -201.283401      -68.647491
 H         -74.122940     -201.815811      -69.992416
 H         -72.711700     -197.924927      -68.609184
 H         -73.862709     -196.882248      -69.461029
 H         -72.769936     -200.517639      -71.467117
 H         -71.819557     -200.130737      -70.173294
 H         -72.338318     -198.142792      -71.183052
 H         -73.859253     -198.608566      -71.528221
