20
 generated by VMD
 C         -80.146408     -206.902527      -74.026146
 N         -80.506531     -206.397720      -75.042702
 H         -77.402359     -207.101120      -72.738823
 H         -79.651474     -207.428741      -73.252457
 C         -76.782753     -207.409470      -71.830032
 C         -75.449165     -206.768143      -71.509766
 C         -77.290337     -208.571747      -71.025673
 C         -75.511726     -206.413193      -70.005501
 C         -77.103683     -208.325150      -69.576416
 C         -75.819496     -207.680588      -69.157433
 H         -75.007118     -205.959702      -72.139870
 H         -74.681961     -207.532211      -71.622223
 H         -78.251534     -208.912781      -71.436348
 H         -76.605080     -209.375839      -71.308235
 H         -76.353958     -205.703522      -69.891327
 H         -74.573891     -205.964386      -69.567368
 H         -77.391365     -209.295578      -69.066406
 H         -77.835312     -207.614273      -69.264534
 H         -75.954742     -207.261581      -68.178741
 H         -74.971786     -208.499939      -69.025780
