20
 generated by VMD
 C         -25.708796      -71.662117      -16.928780
 N         -26.546526      -72.362526      -16.539677
 H         -24.448343      -69.103882      -18.702852
 H         -24.986519      -70.840813      -17.318336
 C         -24.717791      -69.488396      -19.682953
 C         -24.033098      -70.627571      -20.412567
 C         -25.813055      -68.703789      -20.378521
 C         -25.095377      -71.488411      -21.139544
 C         -26.868635      -69.550667      -21.212471
 C         -25.943930      -70.494736      -22.035145
 H         -23.400835      -71.087074      -19.617075
 H         -23.272593      -70.268181      -21.159275
 H         -26.282681      -68.152710      -19.573887
 H         -25.348162      -67.894897      -21.013453
 H         -25.793814      -72.098122      -20.445726
 H         -24.671841      -72.120323      -21.917597
 H         -27.493715      -68.907234      -21.920927
 H         -27.592758      -70.041702      -20.467510
 H         -26.479786      -71.154678      -22.740992
 H         -25.426954      -69.870834      -22.749578
