20
 generated by VMD
 C         -41.127796     -103.017731      -35.682735
 N         -41.262745     -104.152946      -35.466118
 H         -39.231922     -104.339119      -33.399784
 H         -41.194046     -101.912872      -35.879620
 C         -38.665112     -105.059654      -32.961555
 C         -37.240906     -104.776260      -32.870598
 C         -39.102566     -106.458748      -32.755032
 C         -36.665482     -105.258102      -31.609730
 C         -38.775337     -106.808418      -31.290581
 C         -37.156673     -106.624168      -31.109184
 H         -37.103340     -103.689423      -33.037426
 H         -36.836704     -105.235306      -33.829151
 H         -40.115963     -106.436043      -32.919811
 H         -38.605919     -107.137627      -33.490437
 H         -36.888973     -104.555565      -30.785696
 H         -35.611088     -105.399124      -31.844542
 H         -39.110447     -107.813187      -31.196110
 H         -39.231647     -106.137344      -30.491701
 H         -36.957047     -106.827095      -30.022701
 H         -36.629971     -107.370277      -31.675659
