20
 generated by VMD
 C         -22.428930      -67.941559      -16.296635
 N         -21.408236      -67.835114      -15.769762
 H         -24.163765      -65.309540      -18.744961
 H         -23.195204      -67.904793      -17.083811
 C         -24.547365      -66.352959      -18.753733
 C         -23.918716      -66.903999      -20.073513
 C         -25.995667      -66.575310      -18.593206
 C         -24.448093      -68.406517      -20.273359
 C         -26.677372      -67.934875      -19.113926
 C         -26.005630      -68.390533      -20.394199
 H         -22.764378      -66.948051      -20.158705
 H         -24.390085      -66.291748      -20.887848
 H         -26.259426      -66.364792      -17.522648
 H         -26.431257      -65.832428      -19.178862
 H         -24.226667      -69.173241      -19.532312
 H         -24.083094      -68.848274      -21.137411
 H         -27.723660      -67.592812      -19.128265
 H         -26.725611      -68.647949      -18.321484
 H         -26.311659      -69.371346      -20.811029
 H         -26.259499      -67.627754      -21.107141
