20
 generated by VMD
 C         -56.026379     -149.242950      -45.838818
 N         -55.830582     -150.181274      -45.237926
 H         -54.039333     -148.119232      -47.811344
 H         -56.264729     -148.405258      -46.486591
 C         -53.998055     -147.433624      -48.667065
 C         -53.047066     -147.565063      -49.856716
 C         -54.927277     -146.127335      -48.491226
 C         -53.563889     -146.874023      -51.206379
 C         -55.197662     -145.385757      -49.839394
 C         -54.173557     -145.431976      -50.982151
 H         -52.750141     -148.500977      -50.117794
 H         -52.140568     -147.068436      -49.531975
 H         -55.800426     -146.324112      -47.928543
 H         -54.459244     -145.399567      -47.834816
 H         -54.290287     -147.537659      -51.743549
 H         -52.763165     -146.761246      -51.899490
 H         -55.529346     -144.357376      -49.605721
 H         -55.984756     -146.016708      -50.311195
 H         -54.845985     -145.061005      -51.809669
 H         -53.381596     -144.703964      -50.851826
