20
 generated by VMD
 C         -28.034870      -86.534416      -26.905151
 N         -27.874796      -85.530380      -26.322714
 H         -31.116827      -85.395844      -25.344543
 H         -28.344139      -87.404289      -27.518812
 C         -31.857090      -86.229225      -25.575296
 C         -32.535751      -86.831680      -24.347073
 C         -32.046440      -87.041504      -26.899883
 C         -34.101337      -87.314537      -24.818489
 C         -33.441158      -87.565033      -27.204470
 C         -34.103195      -88.193420      -26.030670
 H         -32.691120      -86.045456      -23.601385
 H         -32.085918      -87.792999      -23.956608
 H         -31.784979      -86.384926      -27.781284
 H         -31.340776      -87.855293      -26.920099
 H         -34.412678      -86.300644      -25.070045
 H         -34.527481      -87.734398      -23.964237
 H         -33.455601      -88.343697      -27.988651
 H         -34.120914      -86.727547      -27.517597
 H         -35.184265      -88.417747      -26.352781
 H         -33.681736      -89.245499      -25.772093
