20
 generated by VMD
 C         -61.587517     -154.616150      -53.930855
 N         -62.048225     -155.434128      -53.303505
 H         -58.099236     -154.517944      -52.214546
 H         -61.051838     -153.863281      -54.452988
 C         -57.143612     -154.636475      -51.712257
 C         -57.232971     -154.351196      -50.254383
 C         -55.875645     -154.533493      -52.512932
 C         -56.076706     -154.718475      -49.458817
 C         -54.735172     -154.897980      -51.573483
 C         -54.819038     -154.234222      -50.190067
 H         -58.028114     -154.973358      -50.028706
 H         -57.391300     -153.291870      -50.031216
 H         -56.000637     -155.271927      -53.336903
 H         -55.586918     -153.577515      -52.950649
 H         -55.952244     -155.849274      -49.421051
 H         -56.076118     -154.223984      -48.520283
 H         -53.783745     -154.662415      -52.036407
 H         -54.802906     -155.968979      -51.360786
 H         -53.940891     -154.522507      -49.700550
 H         -54.721939     -153.096390      -50.388546
