20
 generated by VMD
 C         -53.545563     -147.706299      -45.457851
 N         -54.529449     -147.808304      -44.806778
 H         -55.048637     -147.675629      -49.087299
 H         -52.733868     -147.703140      -46.228165
 C         -54.544369     -146.717773      -48.965305
 C         -53.243786     -146.612869      -49.747288
 C         -54.965473     -145.662613      -48.129684
 C         -53.298836     -145.386841      -50.592510
 C         -55.137249     -144.531693      -49.007156
 C         -53.900112     -144.167023      -49.845715
 H         -53.114735     -147.542664      -50.211243
 H         -52.472210     -146.456894      -48.984066
 H         -55.956722     -145.943680      -47.723309
 H         -54.247707     -145.574356      -47.222370
 H         -53.767326     -145.622864      -51.573593
 H         -52.207443     -145.127930      -50.932480
 H         -55.381012     -143.687988      -48.431206
 H         -56.086884     -144.638184      -49.625221
 H         -54.202240     -143.652237      -50.743904
 H         -53.138062     -143.723007      -49.214497
