20
 generated by VMD
 C         -13.513994      -28.192139       -3.627309
 N         -14.015668      -27.344774       -4.164762
 H         -10.418971      -28.670963       -2.632003
 H         -10.075901      -27.596239       -3.867172
 C          -9.626295      -28.376921       -3.308754
 C          -9.083242      -29.359898       -4.270792
 C          -8.554666      -27.815208       -2.432887
 C          -8.051531      -28.777826       -5.157702
 C          -7.409734      -27.265079       -3.256124
 C          -6.922278      -28.239449       -4.356348
 H          -9.759048      -29.855688       -4.939371
 H          -8.646448      -30.206631       -3.733576
 H          -8.913873      -27.118053       -1.713550
 H          -8.216468      -28.603239       -1.741116
 H          -8.546160      -27.932018       -5.748045
 H          -7.770375      -29.517778       -5.921708
 H          -6.579041      -26.877073       -2.646740
 H          -7.741688      -26.377472       -3.771157
 H          -6.187681      -27.799353       -5.017743
 H          -6.540530      -29.127840       -3.804529
