20
 generated by VMD
 C         -18.373087      -48.814247       -7.141306
 N         -19.081434      -49.669426       -7.228971
 H         -16.083614      -47.534512      -10.131498
 H         -16.214031      -48.985325      -11.216882
 C         -16.262363      -47.921608      -11.130075
 C         -15.158278      -47.359890      -12.043177
 C         -17.646692      -47.412903      -11.554494
 C         -15.428674      -47.735565      -13.515019
 C         -17.867599      -47.493084      -13.064685
 C         -16.719185      -47.168571      -14.007922
 H         -14.238512      -47.642452      -11.597387
 H         -15.157725      -46.265736      -12.032323
 H         -18.460703      -47.950092      -10.984894
 H         -17.782379      -46.348045      -11.239941
 H         -15.486682      -48.823467      -13.684895
 H         -14.582339      -47.469440      -14.186870
 H         -18.599186      -46.778996      -13.394036
 H         -18.264753      -48.562160      -13.284229
 H         -16.985107      -47.554169      -14.972557
 H         -16.617434      -46.138058      -14.082390
