20
 generated by VMD
 C         -30.096539      -92.715561      -25.460876
 N         -31.100601      -93.270416      -25.792515
 H         -33.100483      -91.075928      -26.444031
 H         -29.247562      -92.143578      -25.274376
 C         -33.622395      -91.169838      -27.384142
 C         -34.754707      -92.154282      -27.446280
 C         -33.137218      -90.376701      -28.533754
 C         -35.894352      -91.678825      -28.297937
 C         -34.290741      -89.960770      -29.387672
 C         -35.211643      -91.151329      -29.608484
 H         -35.094852      -92.356018      -26.423347
 H         -34.187511      -93.004333      -27.719881
 H         -32.546391      -89.516884      -28.168310
 H         -32.600826      -91.047432      -29.192722
 H         -36.433914      -90.797859      -27.879719
 H         -36.609856      -92.385963      -28.598503
 H         -33.820492      -89.416679      -30.145487
 H         -34.763851      -89.235863      -28.762310
 H         -36.094242      -90.835091      -30.257502
 H         -34.619617      -91.873268      -30.202415
