20
 generated by VMD
 C         -12.684344      -30.139351       -8.295089
 N         -13.450489      -30.731770       -7.747149
 H         -11.150113      -30.690632       -5.162184
 H         -10.702585      -31.208080       -3.510720
 C         -10.820382      -31.474962       -4.562959
 C          -9.481897      -32.034332       -5.148338
 C         -11.895020      -32.548130       -4.812764
 C          -9.229401      -33.354836       -4.444541
 C         -11.637720      -33.836388       -4.083010
 C         -10.296821      -34.391705       -4.559289
 H          -8.561908      -31.358585       -5.047689
 H          -9.517657      -32.178242       -6.215417
 H         -12.909109      -32.218010       -4.525912
 H         -12.009977      -32.727390       -5.894730
 H          -8.993093      -33.232788       -3.335955
 H          -8.268974      -33.805233       -4.863740
 H         -12.445672      -34.507839       -4.271968
 H         -11.663510      -33.732414       -2.921736
 H         -10.049642      -35.287998       -4.057270
 H         -10.435056      -34.718914       -5.618603
