20
 generated by VMD
 C         -59.962730     -169.680725      -55.462700
 N         -59.617844     -168.649811      -55.091530
 H         -62.860985     -170.377579      -56.382355
 H         -60.415390     -170.565414      -55.861691
 C         -63.302666     -169.481873      -56.831535
 C         -62.767517     -168.939514      -58.126850
 C         -63.551804     -168.425110      -55.839813
 C         -63.415676     -167.711929      -58.667370
 C         -64.220558     -167.092865      -56.322025
 C         -63.443462     -166.587830      -57.596695
 H         -62.953354     -169.838196      -58.800182
 H         -61.675888     -168.853378      -58.014526
 H         -64.329399     -168.883453      -55.101856
 H         -62.578197     -168.242722      -55.238651
 H         -64.351517     -167.944672      -59.191055
 H         -62.837017     -167.222610      -59.430027
 H         -64.177689     -166.304855      -55.476219
 H         -65.394478     -167.337753      -56.501194
 H         -63.954258     -165.670792      -57.926781
 H         -62.447807     -166.343903      -57.352478
