20
 generated by VMD
 C          -1.605540       -8.181661        0.698577
 N          -2.398783       -7.628743        0.118691
 H          -3.468453       -9.311107        2.262464
 H          -2.097509      -10.410898        2.267141
 C          -3.122761      -10.211958        2.689557
 C          -4.079168      -11.375150        2.383800
 C          -2.812441      -10.053430        4.187521
 C          -3.583137      -12.709814        2.928014
 C          -2.386824      -11.454490        4.776915
 C          -3.276158      -12.642338        4.457126
 H          -4.172796      -11.577441        1.321499
 H          -5.031028      -11.186095        2.770441
 H          -2.010758       -9.294198        4.232102
 H          -3.714952       -9.832461        4.778457
 H          -2.628690      -13.029635        2.510197
 H          -4.278031      -13.552343        2.768889
 H          -2.240409      -11.430238        5.894341
 H          -1.425707      -11.650903        4.281323
 H          -2.707199      -13.581295        4.684330
 H          -4.182734      -12.600785        5.077161
