20
 generated by VMD
 C         -17.983517      -48.531189       -7.185786
 N         -17.674448      -47.972034       -6.260937
 H         -16.471699      -48.387806      -10.315027
 H         -15.799636      -49.034382      -11.856842
 C         -16.277794      -48.173786      -11.386873
 C         -15.476191      -46.887180      -11.450491
 C         -17.682449      -47.903774      -11.970933
 C         -15.326746      -46.272266      -12.884120
 C         -17.631659      -47.235611      -13.367357
 C         -16.695717      -45.988152      -13.461475
 H         -14.446518      -47.040691      -11.058395
 H         -16.051764      -46.099407      -10.971549
 H         -18.186680      -48.847477      -12.057061
 H         -18.284487      -47.260044      -11.320529
 H         -14.786496      -46.993309      -13.503593
 H         -14.708257      -45.381004      -12.867800
 H         -18.657309      -47.021130      -13.536769
 H         -17.371716      -47.898659      -14.202732
 H         -16.600895      -45.642273      -14.523893
 H         -17.150574      -45.115643      -12.942285
