20
 generated by VMD
 C         -32.379173      -95.380173      -25.568653
 N         -33.286480      -95.262161      -24.823431
 H         -34.083103      -94.690872      -27.987673
 H         -31.490313      -95.502968      -26.137884
 C         -34.296486      -93.768379      -28.553020
 C         -35.773010      -93.582283      -28.822067
 C         -33.308258      -93.488503      -29.695372
 C         -36.062496      -92.239021      -29.307760
 C         -33.718826      -92.110260      -30.237904
 C         -35.166035      -91.912521      -30.533464
 H         -36.315304      -93.878090      -27.926193
 H         -36.202095      -94.220642      -29.677216
 H         -32.261032      -93.473557      -29.362150
 H         -33.386662      -94.261261      -30.486210
 H         -35.711697      -91.391373      -28.663969
 H         -37.152596      -92.085640      -29.550690
 H         -33.171043      -91.915131      -31.132839
 H         -33.127708      -91.377663      -29.608538
 H         -35.379711      -90.894234      -30.873291
 H         -35.235703      -92.657974      -31.244865
