20
 generated by VMD
 C         -22.751791      -52.418533      -11.999333
 N         -23.641560      -52.441868      -11.324397
 H         -19.824312      -53.530720      -14.367632
 H         -21.989767      -52.529240      -13.000096
 C         -18.868017      -53.332203      -14.046445
 C         -18.208897      -52.025021      -14.550451
 C         -18.112484      -54.379337      -13.243413
 C         -16.710939      -52.280571      -14.560909
 C         -17.071281      -53.647076      -12.385695
 C         -16.311838      -52.530518      -13.076963
 H         -18.592390      -51.243279      -13.869514
 H         -18.536947      -51.645214      -15.507738
 H         -18.746927      -54.879379      -12.548316
 H         -17.694649      -55.104767      -13.941040
 H         -16.137915      -51.410698      -14.948250
 H         -16.362740      -53.155319      -15.151237
 H         -16.334015      -54.355595      -11.892581
 H         -17.607462      -53.240162      -11.578666
 H         -16.540752      -51.555763      -12.617569
 H         -15.235991      -52.602486      -12.933377
