20
 generated by VMD
 C         -72.461807     -198.919754      -65.598633
 N         -73.155563     -199.774460      -65.208023
 H         -70.953102     -195.863388      -67.609566
 H         -71.801559     -198.037521      -65.752579
 C         -72.002083     -195.769150      -67.889534
 C         -72.884201     -194.764938      -67.198227
 C         -72.501526     -196.523468      -69.109489
 C         -74.318367     -194.698410      -67.735962
 C         -73.930244     -197.006744      -68.881241
 C         -74.863396     -196.112701      -67.970497
 H         -72.236885     -193.808777      -67.141685
 H         -73.031044     -194.963287      -66.135704
 H         -72.212326     -196.057739      -70.059761
 H         -71.904823     -197.444962      -69.279816
 H         -74.228317     -194.168167      -68.701981
 H         -74.958954     -194.136505      -67.001541
 H         -74.022430     -198.059036      -68.474304
 H         -74.363777     -196.934952      -69.879684
 H         -75.801567     -195.983643      -68.638855
 H         -75.124344     -196.601685      -67.150948
