20
 generated by VMD
 C         -51.882545     -129.968262      -45.227127
 N         -51.757839     -129.559250      -46.336655
 H         -48.689240     -130.053864      -43.256897
 H         -52.406429     -130.389297      -44.339310
 C         -47.881130     -130.115585      -42.401733
 C         -47.865154     -131.479065      -41.812607
 C         -47.289402     -129.002899      -41.674957
 C         -46.568798     -131.730515      -40.992184
 C         -46.105259     -129.334183      -40.831291
 C         -46.161549     -130.661530      -40.001160
 H         -48.036728     -132.165344      -42.565826
 H         -48.695896     -131.642151      -41.033405
 H         -46.983746     -128.189636      -42.402061
 H         -48.060562     -128.637543      -41.096889
 H         -45.947399     -131.984161      -41.814812
 H         -46.537346     -132.751083      -40.569557
 H         -45.766071     -128.626877      -40.136433
 H         -45.252720     -129.592255      -41.537693
 H         -45.164196     -130.895569      -39.650597
 H         -46.860016     -130.689240      -39.176796
