20
 generated by VMD
 C         -49.723099     -131.820465      -46.613987
 N         -50.072784     -132.621628      -47.447128
 H         -48.109440     -132.659180      -44.166138
 H         -49.516403     -131.557465      -45.573277
 C         -48.845505     -133.040131      -43.529831
 C         -49.531132     -134.277573      -43.985123
 C         -48.971512     -132.457581      -42.122253
 C         -49.380516     -135.371689      -42.849979
 C         -48.872753     -133.652191      -41.139244
 C         -49.843330     -134.761978      -41.516876
 H         -49.048435     -134.709427      -44.789097
 H         -50.600117     -134.164948      -44.288673
 H         -48.078732     -131.838531      -41.884319
 H         -49.946140     -131.772217      -42.078297
 H         -48.305996     -135.796143      -42.854111
 H         -50.033203     -136.299652      -43.114838
 H         -49.054214     -133.218719      -40.150997
 H         -47.912247     -134.006134      -41.070602
 H         -49.668655     -135.542206      -40.674202
 H         -50.860699     -134.345078      -41.656231
