20
 generated by VMD
 C         -59.246513     -158.346146      -56.097694
 N         -58.871326     -158.555862      -57.175034
 H         -60.708858     -157.954697      -52.777420
 H         -59.706120     -158.165741      -55.104530
 C         -60.016670     -158.814087      -52.885056
 C         -58.458702     -158.690384      -52.798542
 C         -60.584385     -160.189987      -53.282047
 C         -58.193321     -159.684219      -51.624336
 C         -60.122135     -161.265747      -52.227001
 C         -58.640125     -161.183075      -51.876072
 H         -58.212875     -157.673584      -52.535683
 H         -57.969555     -158.932571      -53.778160
 H         -61.639835     -160.174255      -53.286072
 H         -60.189293     -160.349930      -54.273270
 H         -58.644279     -159.288757      -50.695927
 H         -57.050041     -159.695068      -51.510162
 H         -60.443092     -162.236359      -52.580566
 H         -60.682110     -161.077316      -51.295166
 H         -58.334759     -161.664719      -50.873829
 H         -57.919865     -161.465469      -52.709618
