20
 generated by VMD
 C         -41.778294     -102.169067      -33.864147
 N         -40.763939     -101.874252      -34.313736
 H         -39.333504     -103.545143      -32.476810
 H         -42.805153     -102.117561      -33.590965
 C         -38.293606     -103.838257      -32.238590
 C         -37.100304     -103.695724      -33.106567
 C         -38.061661     -104.540581      -30.952913
 C         -36.011024     -103.093666      -32.346378
 C         -36.834141     -104.140854      -30.166677
 C         -35.552917     -104.022224      -31.167952
 H         -37.593517     -103.083237      -33.882324
 H         -36.748566     -104.554932      -33.602829
 H         -38.946991     -104.413895      -30.275795
 H         -38.145393     -105.531677      -31.256388
 H         -36.424126     -102.165367      -31.855310
 H         -35.070389     -102.813210      -32.801006
 H         -36.660145     -104.905540      -29.512615
 H         -36.932228     -103.190704      -29.538427
 H         -34.739025     -103.617447      -30.614418
 H         -35.294125     -105.063179      -31.559780
