20
 generated by VMD
 C         -23.061722      -54.471172      -15.090398
 N         -23.861958      -53.862431      -15.607289
 H         -20.204916      -54.734219      -15.388255
 H         -22.701912      -55.152424      -14.311146
 C         -19.772869      -55.300499      -14.627070
 C         -19.180565      -54.644840      -13.488356
 C         -19.023027      -56.466366      -15.149738
 C         -18.507601      -55.489689      -12.429461
 C         -18.640896      -57.439972      -14.024108
 C         -17.672752      -56.665817      -13.050935
 H         -19.899717      -53.888916      -13.109675
 H         -18.411171      -53.996273      -13.908757
 H         -19.626738      -57.112103      -15.916841
 H         -18.158525      -56.102440      -15.709060
 H         -19.222824      -55.915024      -11.726932
 H         -17.880732      -54.863083      -11.841015
 H         -18.211920      -58.330517      -14.455879
 H         -19.504366      -57.752827      -13.443303
 H         -17.272871      -57.383492      -12.286257
 H         -16.867411      -56.284817      -13.672455
