20
 generated by VMD
 C         -70.308701     -182.689697      -65.457298
 N         -70.877007     -183.697693      -65.585045
 H         -68.312691     -181.504501      -62.731117
 H         -69.683609     -181.815353      -65.337936
 C         -67.553726     -181.611923      -61.974503
 C         -67.613960     -182.860352      -61.184540
 C         -66.955620     -180.387634      -61.463310
 C         -66.542816     -182.948395      -60.126823
 C         -65.854431     -180.522705      -60.487488
 C         -66.333656     -181.459763      -59.430260
 H         -67.420921     -183.709991      -61.783379
 H         -68.559235     -182.921860      -60.769485
 H         -66.574593     -179.836227      -62.350021
 H         -67.804626     -179.681702      -61.009556
 H         -65.579239     -183.371414      -60.579781
 H         -67.008827     -183.844620      -59.423836
 H         -65.573219     -179.541397      -60.082314
 H         -64.938980     -180.935883      -61.004341
 H         -65.700279     -181.642410      -58.607075
 H         -67.306084     -181.096878      -58.934822
