20
 generated by VMD
 C         -50.267178     -128.787491      -43.509907
 N         -50.760307     -129.394135      -44.334000
 H         -48.809937     -128.343796      -40.462009
 H         -49.598263     -128.213882      -42.881344
 C         -47.728607     -128.229523      -40.447540
 C         -46.833858     -129.328720      -39.972252
 C         -47.107880     -126.923424      -40.726772
 C         -45.999737     -129.661484      -41.149330
 C         -46.262882     -127.205536      -41.957451
 C         -45.305855     -128.350128      -41.647675
 H         -47.601086     -130.162796      -39.717171
 H         -46.165409     -129.079422      -39.187775
 H         -47.747059     -126.063187      -41.059769
 H         -46.432446     -126.492668      -40.027027
 H         -46.614883     -130.001831      -42.037323
 H         -45.115654     -130.297501      -40.829155
 H         -45.733898     -126.292633      -42.216808
 H         -46.890194     -127.602425      -42.744503
 H         -44.676895     -128.738770      -42.471283
 H         -44.496349     -128.031738      -40.908657
