20
 generated by VMD
 C         -78.660294     -210.199829      -76.430519
 N         -77.604042     -210.406525      -76.846916
 H         -79.517754     -212.113907      -74.709824
 H         -79.656975     -210.090851      -76.044441
 C         -79.621330     -212.306229      -73.687119
 C         -78.285957     -212.465805      -72.953369
 C         -80.799133     -213.029968      -73.177307
 C         -78.432152     -212.739120      -71.403824
 C         -80.768433     -213.570206      -71.725761
 C         -79.353264     -213.884705      -71.160919
 H         -77.702675     -211.573975      -73.170097
 H         -77.735481     -213.365509      -73.372276
 H         -81.654999     -212.327591      -73.344048
 H         -80.982147     -213.892746      -73.806595
 H         -78.805817     -211.901962      -70.824448
 H         -77.454445     -212.939987      -70.898468
 H         -81.639618     -214.296692      -71.413277
 H         -81.071518     -212.703598      -71.208443
 H         -79.419525     -214.134476      -70.037270
 H         -78.905052     -214.934830      -71.475822
