20
 generated by VMD
 C         -51.071949     -127.920418      -41.589111
 N         -51.963661     -128.651596      -41.882069
 H         -47.305420     -128.088165      -41.286953
 H         -50.091499     -127.471191      -41.598824
 C         -46.719933     -127.461731      -40.719353
 C         -45.411915     -127.842873      -40.069450
 C         -46.787052     -125.935699      -41.173397
 C         -44.196434     -127.299622      -40.832962
 C         -45.510761     -125.473038      -41.921936
 C         -44.301231     -125.848503      -41.140575
 H         -45.464573     -128.893860      -39.969471
 H         -45.422623     -127.383385      -39.075344
 H         -47.644253     -125.777512      -41.757824
 H         -46.887997     -125.579063      -40.086109
 H         -43.975155     -127.913780      -41.784950
 H         -43.462959     -127.336884      -40.020020
 H         -45.786442     -124.420761      -42.059116
 H         -45.536427     -125.881859      -42.936493
 H         -43.377689     -125.458260      -41.692772
 H         -44.208687     -125.289139      -40.190830
