20
 generated by VMD
 C         -23.091228      -55.092892      -16.803364
 N         -23.707926      -55.033745      -15.772814
 H         -19.633108      -55.388451      -15.551027
 H         -22.787086      -54.758469      -17.907465
 C         -19.165823      -55.951252      -14.786698
 C         -19.419796      -55.946770      -13.327775
 C         -18.468220      -57.160950      -15.280852
 C         -20.279839      -57.056919      -12.860774
 C         -18.973732      -58.587498      -14.646524
 C         -19.871281      -58.446022      -13.371201
 H         -19.978828      -54.997528      -13.094921
 H         -18.503424      -55.785408      -12.739370
 H         -18.399099      -57.139019      -16.435257
 H         -17.385567      -57.170433      -15.032495
 H         -21.323387      -56.830360      -13.183114
 H         -20.261927      -57.095299      -11.800772
 H         -18.066740      -59.170982      -14.312715
 H         -19.467192      -59.176254      -15.399365
 H         -20.766644      -59.114571      -13.505595
 H         -19.315805      -58.904984      -12.554935
