20
 generated by VMD
 C         -13.423759      -28.181452       -3.681779
 N         -14.001761      -27.377718       -4.192733
 H         -10.456291      -28.922398       -2.793471
 H         -10.132146      -27.557341       -3.805041
 C          -9.678010      -28.363935       -3.300301
 C          -9.156180      -29.475050       -4.296946
 C          -8.556205      -27.850849       -2.382529
 C          -8.091757      -28.808071       -5.211693
 C          -7.411018      -27.292864       -3.251662
 C          -6.945622      -28.226501       -4.340511
 H         -10.045676      -29.756552       -4.799102
 H          -8.678068      -30.280428       -3.677925
 H          -8.967180      -27.027599       -1.847500
 H          -8.163525      -28.654833       -1.750823
 H          -8.568661      -27.982613       -5.840611
 H          -7.585065      -29.553495       -5.832871
 H          -6.575199      -27.168327       -2.570457
 H          -7.741799      -26.337248       -3.677043
 H          -6.243483      -27.662199       -4.974089
 H          -6.277245      -29.036968       -3.962905
