20
 generated by VMD
 C         -12.325171      -27.535799       -4.612539
 N         -13.130831      -28.166748       -5.071394
 H         -10.863007      -30.420698       -2.699019
 H         -10.998849      -28.928190       -3.623050
 C         -10.244187      -29.739353       -3.301550
 C          -9.702791      -30.352291       -4.624833
 C          -9.230021      -29.022423       -2.414792
 C          -8.634124      -29.495325       -5.357583
 C          -8.332493      -28.057047       -3.205210
 C          -7.644278      -28.790403       -4.343779
 H         -10.490216      -30.672625       -5.347352
 H          -9.226648      -31.283043       -4.314717
 H          -9.704248      -28.483385       -1.571809
 H          -8.530438      -29.754349       -2.075573
 H          -9.095825      -28.737162       -6.011963
 H          -8.049328      -30.120201       -6.099508
 H          -7.639842      -27.639641       -2.460198
 H          -8.992155      -27.274784       -3.517350
 H          -6.947097      -28.101202       -4.848962
 H          -6.940243      -29.551252       -4.012031
