20
 generated by VMD
 C         -70.301239     -181.156525      -62.530396
 N         -70.721901     -180.130081      -62.807877
 H         -66.832947     -181.780426      -60.846619
 H         -69.962433     -182.131424      -62.327034
 C         -66.265968     -180.804611      -60.651211
 C         -64.773796     -180.712204      -60.297310
 C         -67.186455     -179.652420      -60.239372
 C         -64.267876     -179.337265      -60.746796
 C         -66.607048     -178.511902      -60.996742
 C         -65.218193     -178.138855      -60.572948
 H         -64.214096     -181.486298      -60.847443
 H         -64.851288     -180.723999      -59.182194
 H         -68.166321     -179.774734      -60.541668
 H         -67.200676     -179.361969      -59.211418
 H         -63.848633     -179.445419      -61.713596
 H         -63.437698     -178.990585      -60.222477
 H         -67.313339     -177.647980      -60.788994
 H         -66.712257     -178.808395      -62.077774
 H         -64.862625     -177.243378      -60.929337
 H         -65.358154     -178.013336      -59.513676
