20
 generated by VMD
 C         -50.053978     -130.611267      -45.918854
 N         -50.922485     -129.956894      -45.348732
 H         -47.585674     -132.340088      -44.443546
 H         -49.094784     -131.028778      -46.213783
 C         -48.057892     -132.153107      -43.450863
 C         -48.466927     -133.370346      -42.793282
 C         -48.380775     -130.897339      -42.775932
 C         -47.965893     -133.410294      -41.341076
 C         -47.768055     -130.794296      -41.422321
 C         -48.132450     -132.104431      -40.545563
 H         -48.034966     -134.170990      -43.327877
 H         -49.577721     -133.545166      -42.800007
 H         -48.014679     -130.054428      -43.432716
 H         -49.413479     -130.931519      -42.614414
 H         -46.902115     -133.650726      -41.501030
 H         -48.484417     -134.248947      -40.863735
 H         -48.141472     -129.992676      -40.855305
 H         -46.640167     -130.890182      -41.419392
 H         -47.687752     -132.159531      -39.483662
 H         -49.183681     -131.998932      -40.255482
