20
 generated by VMD
 C         -15.861389      -47.652992       -6.658465
 N         -15.836470      -46.561897       -6.415398
 H         -16.661598      -47.772793      -10.095794
 H         -15.400967      -47.448772      -11.269683
 C         -16.389172      -47.201641      -10.975180
 C         -16.390841      -45.721069      -10.610137
 C         -17.292078      -47.552631      -12.177226
 C         -16.083326      -44.847126      -11.884696
 C         -16.893782      -46.710022      -13.369393
 C         -16.986685      -45.253811      -13.058069
 H         -15.520234      -45.537457       -9.947165
 H         -17.250845      -45.456097       -9.934684
 H         -17.183277      -48.653347      -12.415026
 H         -18.361181      -47.412422      -11.950192
 H         -15.020600      -45.037315      -12.104747
 H         -16.123405      -43.753414      -11.717997
 H         -17.615337      -46.972324      -14.212079
 H         -15.868743      -46.923504      -13.617944
 H         -16.592056      -44.701042      -13.915411
 H         -17.990759      -44.953030      -12.810144
