20
 generated by VMD
 C         -23.332342      -53.344902      -13.285018
 N         -23.314146      -52.645725      -14.227351
 H         -20.604078      -54.908752      -14.437455
 H         -23.183041      -53.897251      -12.174515
 C         -19.645554      -54.772575      -13.981995
 C         -19.081295      -53.449787      -13.964107
 C         -18.556086      -55.868378      -14.135107
 C         -17.807619      -53.376995      -13.023016
 C         -17.254213      -55.791241      -13.279393
 C         -16.688431      -54.337994      -13.417656
 H         -19.818211      -52.752914      -13.529471
 H         -18.737719      -53.260216      -14.998484
 H         -19.055002      -56.751038      -13.935957
 H         -18.288147      -55.869244      -15.212082
 H         -18.004852      -53.612572      -11.957681
 H         -17.487116      -52.341732      -13.067356
 H         -16.533062      -56.515026      -13.555056
 H         -17.484528      -56.075165      -12.194839
 H         -15.850186      -54.189888      -12.686379
 H         -16.310162      -54.139114      -14.445916
