20
 generated by VMD
 C         -10.321502      -25.166159       -0.751991
 N         -11.322164      -24.736542       -0.562359
 H          -6.592949      -25.570967       -0.834286
 H          -8.243984      -25.195768       -1.426912
 C          -7.166240      -25.211340       -1.699896
 C          -6.972977      -25.967501       -2.986362
 C          -6.957569      -23.625839       -2.022036
 C          -7.833510      -25.488279       -4.131162
 C          -7.863339      -23.100735       -3.140855
 C          -7.808275      -23.969063       -4.418248
 H          -7.175829      -27.034571       -2.866838
 H          -5.857646      -25.937340       -3.255415
 H          -7.088916      -23.063879       -1.102229
 H          -5.955142      -23.428064       -2.338311
 H          -8.848541      -25.734642       -3.793977
 H          -7.716785      -26.077608       -5.033531
 H          -7.579381      -22.048176       -3.353071
 H          -8.887169      -23.164366       -2.787137
 H          -8.659713      -23.689888       -5.066554
 H          -6.815487      -23.728767       -4.799524
