20
 generated by VMD
 C         -30.376678      -92.953812      -25.072882
 N         -30.087275      -93.869881      -25.758162
 H         -33.304062      -91.627388      -26.472776
 H         -30.527124      -92.081047      -24.345167
 C         -34.016380      -91.353043      -27.302559
 C         -35.138535      -92.245834      -27.660690
 C         -33.266613      -90.828918      -28.528162
 C         -36.086636      -91.515266      -28.628149
 C         -34.302818      -90.214294      -29.613253
 C         -35.424721      -91.077583      -29.945595
 H         -35.795067      -92.540085      -26.669920
 H         -34.789795      -93.196259      -28.151300
 H         -32.438492      -90.112457      -28.269873
 H         -32.804184      -91.718124      -28.902809
 H         -36.422974      -90.618118      -28.129425
 H         -36.961685      -92.109619      -28.963816
 H         -33.736122      -89.844032      -30.423485
 H         -34.552177      -89.378403      -28.974634
 H         -36.099583      -90.579124      -30.713049
 H         -35.012127      -91.987465      -30.354683
