20
 generated by VMD
 C          -1.624602      -13.943959        1.346088
 N          -1.873897      -12.861004        1.442068
 H          -3.751218      -17.259548        1.697541
 H          -3.843050      -17.137794        0.025342
 C          -4.506062      -17.111038        0.884693
 C          -5.177031      -15.750073        1.103464
 C          -5.620409      -18.248116        0.874617
 C          -6.366577      -15.462137        0.182796
 C          -6.848642      -17.936159        0.014328
 C          -7.415980      -16.622711        0.299474
 H          -4.422633      -15.012438        0.915149
 H          -5.443729      -15.763032        2.195688
 H          -5.213855      -19.199337        0.657129
 H          -5.911790      -18.487282        1.858749
 H          -6.010134      -15.498951       -0.837943
 H          -6.865445      -14.500846        0.380634
 H          -7.601734      -18.735987        0.089231
 H          -6.512987      -17.938633       -1.059340
 H          -8.294697      -16.398216       -0.342621
 H          -7.728131      -16.596041        1.347053
