20
 generated by VMD
 C         -29.317804      -90.522079      -24.966177
 N         -28.986639      -91.641670      -25.164711
 H         -32.104759      -91.328026      -27.696768
 H         -29.732866      -89.442688      -24.878349
 C         -33.067162      -90.937637      -27.843943
 C         -34.436958      -91.468651      -27.479246
 C         -33.014397      -89.575516      -28.570507
 C         -35.599506      -90.589378      -27.341793
 C         -34.354801      -88.787910      -28.508097
 C         -35.640114      -89.599007      -28.508833
 H         -34.392735      -92.164108      -26.644030
 H         -34.712112      -92.153305      -28.388098
 H         -32.141064      -89.011986      -28.222464
 H         -32.674919      -89.790535      -29.570988
 H         -35.555500      -89.798073      -26.606052
 H         -36.585583      -91.034866      -27.248787
 H         -34.301785      -87.992256      -29.251245
 H         -34.146751      -88.292656      -27.551710
 H         -36.460632      -88.862411      -28.444576
 H         -35.955315      -90.174194      -29.374975
