20
 generated by VMD
 C         -20.092196      -56.122192      -16.760048
 N         -21.199932      -56.381496      -16.609303
 H         -21.959190      -59.211811      -17.298323
 H         -19.094891      -55.875919      -16.859674
 C         -22.296885      -59.942860      -16.495638
 C         -22.577131      -59.326542      -15.168112
 C         -22.012157      -61.411217      -16.462433
 C         -21.509531      -59.736275      -14.085340
 C         -20.812590      -61.680508      -15.628386
 C         -20.947741      -61.203587      -14.210811
 H         -23.541660      -59.489582      -14.760774
 H         -22.638819      -58.245815      -15.314162
 H         -22.877544      -62.047077      -16.118237
 H         -21.802656      -61.790405      -17.494860
 H         -21.963829      -59.612026      -13.060861
 H         -20.612627      -59.037052      -14.245522
 H         -19.905558      -61.363281      -16.060524
 H         -20.624912      -62.711666      -15.478348
 H         -21.475536      -61.977314      -13.625134
 H         -19.913504      -61.197372      -13.806881
