20
 generated by VMD
 C         -42.638687     -120.648247      -35.185169
 N         -42.552219     -121.127487      -34.155327
 H         -43.782764     -120.794693      -38.185135
 H         -42.642986     -120.127121      -36.116909
 C         -43.938519     -119.750023      -38.389194
 C         -43.057823     -119.215698      -39.532822
 C         -45.287643     -119.038994      -38.119694
 C         -43.933918     -119.013199      -40.812420
 C         -45.982883     -118.633881      -39.433681
 C         -45.071480     -118.059868      -40.397079
 H         -42.366241     -120.043533      -39.724270
 H         -42.475479     -118.214600      -39.242676
 H         -45.880211     -119.688797      -37.474083
 H         -44.956512     -118.178230      -37.419395
 H         -44.354706     -119.905136      -41.308502
 H         -43.232071     -118.535057      -41.403358
 H         -46.711128     -117.932884      -39.063904
 H         -46.382450     -119.591263      -39.808678
 H         -45.581154     -117.861900      -41.357967
 H         -44.686394     -117.088997      -39.850395
