20
 generated by VMD
 C         -20.119484      -60.298481      -16.979645
 N         -19.008642      -60.303574      -17.360048
 H         -23.377546      -60.583046      -17.093664
 H         -21.134377      -60.447647      -16.669386
 C         -23.164780      -61.647549      -16.844370
 C         -23.395493      -62.491745      -18.042662
 C         -23.370056      -62.102146      -15.426279
 C         -23.722851      -63.928360      -17.732395
 C         -23.134695      -63.672039      -15.330583
 C         -23.962654      -64.441452      -16.297886
 H         -22.400993      -62.578003      -18.549358
 H         -24.242292      -62.095028      -18.775045
 H         -22.527527      -61.650249      -14.847785
 H         -24.407040      -61.765419      -15.094288
 H         -22.953455      -64.607010      -18.148558
 H         -24.623302      -64.128815      -18.306463
 H         -23.154514      -63.979153      -14.276557
 H         -22.078842      -63.969265      -15.507144
 H         -23.809338      -65.516975      -16.355122
 H         -25.008568      -64.361885      -15.928299
