20
 generated by VMD
 C         -79.525131     -206.861603      -74.622208
 N         -80.280952     -206.044525      -74.318054
 H         -78.160660     -207.081192      -72.029648
 H         -79.023163     -207.795700      -74.824646
 C         -77.329422     -207.056686      -71.313774
 C         -76.104912     -206.220047      -71.555389
 C         -77.329941     -208.223495      -70.449715
 C         -75.385597     -206.019272      -70.185295
 C         -76.488289     -208.157074      -69.237137
 C         -75.227753     -207.348358      -69.484207
 H         -76.279526     -205.268326      -71.932106
 H         -75.452789     -206.782364      -72.243546
 H         -78.367584     -208.505829      -70.102287
 H         -76.963768     -209.063431      -71.068039
 H         -75.997032     -205.394501      -69.462616
 H         -74.456993     -205.473923      -70.377159
 H         -76.301315     -209.140381      -68.842392
 H         -77.057014     -207.651825      -68.370461
 H         -74.608154     -207.108612      -68.602898
 H         -74.665459     -208.003326      -70.120415
