20
 generated by VMD
 C         -46.629848     -124.539948      -36.800377
 N         -46.964748     -125.065445      -35.840816
 H         -44.754128     -122.181389      -37.969845
 H         -46.137836     -123.977402      -37.539165
 C         -44.640755     -121.978157      -38.990795
 C         -43.317528     -121.801704      -39.721436
 C         -45.786602     -121.108139      -39.536518
 C         -43.559235     -122.096466      -41.192593
 C         -45.972107     -121.305756      -41.029903
 C         -44.706284     -121.218773      -41.820290
 H         -42.689934     -122.624275      -39.279160
 H         -42.736965     -120.906509      -39.615391
 H         -46.663898     -121.286034      -38.965137
 H         -45.490444     -120.028099      -39.326748
 H         -43.717060     -123.239006      -41.280872
 H         -42.633667     -121.651649      -41.800743
 H         -46.739365     -120.593475      -41.326939
 H         -46.485447     -122.284325      -41.198872
 H         -44.953335     -121.669762      -42.830723
 H         -44.438751     -120.190025      -41.962475
