20
 generated by VMD
 C         -22.764229      -52.465302      -12.023309
 N         -23.725006      -52.409348      -11.462978
 H         -19.981567      -53.763577      -14.505352
 H         -21.584644      -52.353706      -12.228941
 C         -18.901171      -53.514713      -14.190951
 C         -18.314043      -52.210087      -14.549178
 C         -18.132545      -54.385456      -13.315166
 C         -16.763800      -52.149044      -14.412528
 C         -17.085651      -53.719238      -12.385771
 C         -16.194887      -52.664402      -13.065786
 H         -18.856310      -51.540230      -13.850017
 H         -18.539742      -51.945343      -15.574789
 H         -18.744312      -55.023640      -12.661291
 H         -17.593670      -55.046860      -14.055648
 H         -16.479057      -51.127617      -14.732726
 H         -16.367069      -52.833256      -15.184687
 H         -16.426573      -54.487583      -12.058401
 H         -17.588087      -53.349865      -11.415462
 H         -16.109192      -51.807461      -12.402812
 H         -15.237905      -53.158077      -13.317433
