20
 generated by VMD
 C         -50.580284     -129.420059      -43.170147
 N         -50.368767     -128.270630      -42.923370
 H         -48.488655     -128.063278      -40.338135
 H         -50.812489     -130.483124      -43.268894
 C         -47.460110     -127.838768      -40.512653
 C         -46.375332     -128.717545      -39.915359
 C         -47.163475     -126.394302      -40.932957
 C         -45.359535     -128.777008      -40.994133
 C         -46.215527     -126.626724      -42.084419
 C         -45.045895     -127.467903      -41.567635
 H         -46.814827     -129.621918      -39.558804
 H         -45.889076     -128.225800      -39.047909
 H         -48.022038     -125.689796      -41.155846
 H         -46.681107     -125.807198      -40.080894
 H         -45.854481     -129.329559      -41.792095
 H         -44.427589     -129.213669      -40.611156
 H         -45.799545     -125.599007      -42.378105
 H         -46.706440     -127.224449      -42.958492
 H         -44.272709     -127.732445      -42.327225
 H         -44.529816     -126.854675      -40.847004
