20
 generated by VMD
 C         -70.602051     -197.433121      -64.808540
 N         -69.862885     -197.776901      -65.623428
 H         -72.875061     -196.553268      -66.154701
 H         -71.360222     -197.001129      -64.176781
 C         -73.375641     -195.787354      -66.694992
 C         -73.072662     -194.409912      -66.255814
 C         -74.418152     -196.034561      -67.717934
 C         -72.830063     -193.599319      -67.471222
 C         -74.705070     -194.792648      -68.493141
 C         -73.465714     -193.943161      -68.807373
 H         -72.114395     -194.430054      -65.658043
 H         -73.886993     -194.076035      -65.695900
 H         -73.884018     -196.770477      -68.479462
 H         -75.297424     -196.579941      -67.236626
 H         -71.762596     -193.370285      -67.671410
 H         -73.291382     -192.615936      -67.218338
 H         -75.305984     -194.149414      -67.838715
 H         -75.273033     -195.026596      -69.429001
 H         -72.750908     -194.608322      -69.360367
 H         -73.681572     -193.202896      -69.671234
