20
 generated by VMD
 C         -63.486557     -174.714264      -55.919315
 N         -62.357834     -174.616760      -56.163837
 H         -65.650002     -173.388046      -57.639435
 H         -64.525795     -174.933899      -55.700027
 C         -65.159882     -172.550705      -58.194263
 C         -65.418045     -171.030518      -57.907185
 C         -64.566216     -172.716904      -59.690762
 C         -64.099487     -170.156265      -58.109013
 C         -63.434681     -171.711761      -60.058331
 C         -63.631969     -170.330688      -59.559772
 H         -65.818199     -170.897491      -56.816746
 H         -66.216515     -170.567352      -58.552238
 H         -64.175262     -173.841293      -59.918041
 H         -65.447510     -172.535614      -60.461967
 H         -63.288536     -170.565536      -57.457451
 H         -64.239830     -169.109268      -57.873989
 H         -63.279514     -171.759140      -61.152592
 H         -62.564213     -172.058426      -59.593117
 H         -62.617126     -169.819962      -59.604347
 H         -64.273743     -169.761795      -60.268520
