20
 generated by VMD
 C         -12.508223      -30.245098       -7.992306
 N         -13.440203      -30.124666       -7.389591
 H         -11.454082      -30.318737       -5.017222
 H         -10.526237      -30.639048       -3.760162
 C         -10.868736      -31.173912       -4.624622
 C          -9.608235      -31.614082       -5.413425
 C         -11.833492      -32.235023       -4.257185
 C          -8.943172      -32.806648       -4.728136
 C         -11.190186      -33.410625       -3.650064
 C          -9.928690      -33.957935       -4.448370
 H          -8.926140      -30.809223       -5.462796
 H          -9.985678      -31.874617       -6.451295
 H         -12.586258      -31.892668       -3.552332
 H         -12.414221      -32.452408       -5.151816
 H          -8.443756      -32.545162       -3.776234
 H          -8.173426      -33.184914       -5.410758
 H         -11.964040      -34.261646       -3.641080
 H         -10.880610      -33.226814       -2.648855
 H          -9.436515      -34.803905       -3.925635
 H         -10.247206      -34.422199       -5.354097
