20
 generated by VMD
 C          -9.348064      -24.773010        0.839705
 N         -10.028842      -25.382029        1.464111
 H          -6.802994      -23.103962       -0.587350
 H          -8.296495      -22.629612       -1.339722
 C          -7.270046      -23.035637       -1.633506
 C          -7.408569      -24.335817       -2.364006
 C          -6.450466      -22.017899       -2.427948
 C          -8.057991      -24.239500       -3.733572
 C          -7.069672      -21.851908       -3.880513
 C          -7.337091      -23.226870       -4.610003
 H          -7.970921      -25.067038       -1.733981
 H          -6.387455      -24.686283       -2.607635
 H          -6.416200      -21.089844       -1.888680
 H          -5.446327      -22.472729       -2.425523
 H          -9.065233      -23.815638       -3.586721
 H          -8.031556      -25.280499       -4.199498
 H          -6.491787      -21.161934       -4.520621
 H          -8.086575      -21.411716       -3.705417
 H          -7.783664      -23.109455       -5.552114
 H          -6.345757      -23.617952       -4.805471
