20
 generated by VMD
 C         -57.696869     -165.107208      -56.531536
 N         -57.232662     -164.244949      -57.228157
 H         -60.123756     -164.748276      -54.179146
 H         -58.153549     -165.863388      -55.917274
 C         -61.174053     -164.818253      -54.539776
 C         -61.945137     -165.964722      -53.919743
 C         -61.519371     -164.023392      -55.816349
 C         -63.424713     -165.849487      -54.283421
 C         -63.044949     -163.940933      -55.863224
 C         -63.790810     -165.242996      -55.611271
 H         -61.821526     -166.058212      -52.845959
 H         -61.537792     -166.840210      -54.511127
 H         -60.937244     -163.057526      -55.657627
 H         -61.008553     -164.572632      -56.553333
 H         -63.843754     -165.096329      -53.523621
 H         -64.115822     -166.767822      -54.110447
 H         -63.343647     -163.504822      -56.975159
 H         -63.299946     -163.263260      -55.054890
 H         -64.790169     -165.039597      -55.754547
 H         -63.734875     -165.918900      -56.423832
