20
 generated by VMD
 C         -41.998367     -101.537476      -33.007797
 N         -41.226078     -101.618866      -33.898407
 H         -38.684551     -103.229477      -32.799171
 H         -42.676361     -101.074844      -32.366241
 C         -37.877460     -103.464844      -32.142677
 C         -36.561272     -103.419647      -33.112423
 C         -37.687439     -103.702621      -30.704212
 C         -35.633762     -102.516235      -32.353386
 C         -36.398308     -103.131355      -30.028624
 C         -35.258038     -103.130928      -31.000193
 H         -36.830139     -103.176353      -34.140873
 H         -36.155552     -104.431786      -33.180122
 H         -38.566479     -103.424049      -30.151325
 H         -37.771210     -104.859131      -30.640110
 H         -36.133179     -101.508781      -32.270954
 H         -34.728794     -102.317543      -33.025578
 H         -36.091328     -103.704239      -29.031212
 H         -36.551155     -102.110016      -29.778980
 H         -34.399422     -102.446175      -30.795792
 H         -34.791389     -104.088829      -31.068995
