20
 generated by VMD
 C         -12.487957      -28.170731       -5.453056
 N         -13.178343      -28.264677       -6.327824
 H         -11.956201      -31.732285       -4.627678
 H         -11.140573      -30.130390       -5.200994
 C         -11.049625      -31.100674       -4.607533
 C          -9.915289      -31.898554       -5.245142
 C         -10.631356      -30.667295       -3.140819
 C          -8.513570      -31.185772       -5.225790
 C          -9.321333      -29.813505       -3.209554
 C          -8.181340      -30.674036       -3.814615
 H         -10.172474      -32.213993       -6.309047
 H          -9.655372      -32.725925       -4.701032
 H         -11.364661      -30.117722       -2.619339
 H         -10.417211      -31.594875       -2.617827
 H          -8.510149      -30.400396       -5.938642
 H          -7.709740      -31.885824       -5.454381
 H          -8.959579      -29.436243       -2.257938
 H          -9.563112      -28.939219       -3.840160
 H          -7.245280      -30.103819       -3.948052
 H          -8.039362      -31.622728       -3.190701
