20
 generated by VMD
 C         -19.428703      -60.755775      -17.737843
 N         -20.173649      -59.910263      -17.769331
 H         -22.839890      -60.026886      -15.903778
 H         -18.487616      -61.412952      -17.708925
 C         -23.099285      -61.069771      -16.033173
 C         -23.058006      -61.672764      -17.470449
 C         -23.798599      -61.854736      -15.006493
 C         -22.942160      -63.156979      -17.536064
 C         -23.018393      -63.190639      -14.980736
 C         -23.274969      -64.002052      -16.261999
 H         -22.215948      -61.236176      -17.910734
 H         -23.949383      -61.437847      -17.998062
 H         -23.722658      -61.324802      -14.134520
 H         -24.843834      -62.050220      -15.226027
 H         -21.820620      -63.365025      -17.557922
 H         -23.380228      -63.679642      -18.446535
 H         -23.313227      -63.815922      -14.103445
 H         -21.953730      -63.006481      -14.679447
 H         -22.611259      -64.838310      -16.248909
 H         -24.256481      -64.439354      -16.405598
