20
 generated by VMD
 C         -18.181437      -48.611076       -7.283820
 N         -18.823193      -49.329178       -6.727205
 H         -16.220572      -47.832409      -10.081666
 H         -16.243710      -49.053707      -11.182159
 C         -16.330748      -47.976460      -11.149702
 C         -15.127960      -47.316769      -11.940326
 C         -17.701822      -47.493855      -11.648821
 C         -15.316753      -47.219753      -13.433624
 C         -17.833826      -47.526924      -13.153756
 C         -16.721710      -46.793140      -13.895635
 H         -14.204681      -47.759071      -11.587723
 H         -15.127680      -46.260395      -11.669224
 H         -18.481215      -48.176693      -11.224031
 H         -17.886412      -46.443443      -11.333841
 H         -15.202328      -48.206661      -13.866167
 H         -14.575501      -46.482296      -13.807515
 H         -18.752193      -47.148212      -13.498035
 H         -17.924976      -48.584118      -13.540012
 H         -16.813150      -46.916676      -14.972728
 H         -16.816542      -45.749790      -13.748114
