20
 generated by VMD
 C         -29.757877      -89.409363      -25.170485
 N         -29.124445      -89.645889      -26.134075
 H         -32.039047      -91.298935      -27.139601
 H         -30.367907      -89.351379      -24.187813
 C         -32.903271      -90.776024      -27.553022
 C         -34.265839      -91.067947      -26.966066
 C         -32.720478      -89.521843      -28.441402
 C         -35.133392      -89.837074      -26.668257
 C         -33.467823      -88.371620      -27.784168
 C         -34.946888      -88.741173      -27.678225
 H         -34.126850      -91.787132      -26.130836
 H         -34.728825      -91.585533      -27.882917
 H         -31.719465      -89.144508      -28.733227
 H         -33.226974      -89.743858      -29.373915
 H         -34.696568      -89.375999      -25.733875
 H         -36.137489      -90.192497      -26.450916
 H         -33.452057      -87.395493      -28.289938
 H         -32.945641      -88.295105      -26.764984
 H         -35.406494      -87.884766      -27.203129
 H         -35.360168      -89.025940      -28.502293
