20
 generated by VMD
 C         -30.805468      -75.775848      -22.779514
 N         -30.922367      -75.109627      -23.739012
 H         -29.076231      -78.376884      -21.522455
 H         -30.532385      -76.521156      -21.944452
 C         -28.087385      -78.016975      -21.583399
 C         -27.088072      -78.331779      -22.769901
 C         -27.514492      -77.349045      -20.406992
 C         -26.478989      -76.928055      -23.178293
 C         -26.875025      -75.959602      -20.824757
 C         -25.862389      -76.079300      -21.997713
 H         -27.610336      -78.825500      -23.491055
 H         -26.310757      -78.936729      -22.481972
 H         -28.288359      -77.211273      -19.686129
 H         -26.714014      -78.019852      -19.985151
 H         -27.123787      -76.327400      -23.838299
 H         -25.571825      -77.041565      -23.767977
 H         -26.219667      -75.464851      -20.021418
 H         -27.713379      -75.163185      -21.067221
 H         -25.773428      -75.057060      -22.361181
 H         -24.848238      -76.569771      -21.712873
