20
 generated by VMD
 C         -57.747520     -164.994141      -56.512222
 N         -57.243519     -164.177399      -57.221638
 H         -60.074379     -164.729233      -54.224678
 H         -58.260040     -165.696533      -55.881878
 C         -61.028164     -164.918854      -54.606915
 C         -61.938118     -165.921143      -53.911343
 C         -61.509239     -164.104965      -55.800045
 C         -63.456970     -165.741196      -54.197704
 C         -63.027004     -163.863113      -55.859509
 C         -63.746403     -165.198990      -55.593403
 H         -61.871067     -165.583115      -52.841110
 H         -61.662498     -166.927582      -54.149384
 H         -61.141399     -163.120361      -55.864723
 H         -61.250813     -164.629288      -56.788055
 H         -63.941311     -165.228607      -53.417381
 H         -63.771008     -166.719269      -54.010880
 H         -63.177013     -163.500351      -56.779716
 H         -63.249653     -163.157410      -55.011768
 H         -64.936951     -165.064194      -55.694622
 H         -63.456875     -165.877029      -56.473038
