20
 generated by VMD
 C         -29.279451      -80.206146      -26.770876
 N         -29.925669      -80.187584      -27.709696
 H         -28.628815      -82.294342      -24.741560
 H         -28.502817      -80.312897      -25.994001
 C         -29.243542      -83.023338      -24.174526
 C         -29.367693      -82.907104      -22.655941
 C         -29.997833      -84.124191      -24.837078
 C         -30.821442      -83.061081      -22.238686
 C         -31.440878      -84.092499      -24.420984
 C         -31.501938      -84.177666      -22.909384
 H         -29.025293      -82.026146      -22.225080
 H         -29.002045      -83.861313      -22.215227
 H         -29.745438      -84.005226      -25.901388
 H         -29.604464      -85.102921      -24.427473
 H         -31.274984      -82.061348      -22.562094
 H         -30.896383      -83.392517      -21.210398
 H         -31.922102      -84.941917      -24.957203
 H         -31.852730      -83.130577      -24.737555
 H         -32.545246      -84.217316      -22.750088
 H         -31.107470      -85.204330      -22.544153
