20
 generated by VMD
 C         -68.721977     -186.378845      -67.824387
 N         -68.168373     -187.375000      -67.518730
 H         -68.265366     -187.176285      -64.353889
 H         -69.185478     -185.522125      -68.186729
 C         -69.051399     -187.569321      -63.753052
 C         -68.906799     -187.397293      -62.165157
 C         -70.474777     -187.428299      -64.302612
 C         -70.012535     -188.241043      -61.453926
 C         -71.632576     -187.939484      -63.388844
 C         -71.371628     -187.928528      -61.931934
 H         -69.006058     -186.252625      -61.899948
 H         -67.851532     -187.740234      -61.950134
 H         -70.678062     -186.392441      -64.378448
 H         -70.558762     -187.989243      -65.248566
 H         -69.906799     -188.040527      -60.401108
 H         -69.856247     -189.347961      -61.501038
 H         -71.928543     -189.028534      -63.608433
 H         -72.578140     -187.416565      -63.690380
 H         -71.487885     -186.923401      -61.551712
 H         -72.186516     -188.394226      -61.550282
