20
 generated by VMD
 C         -73.858292     -201.539276      -65.318214
 N         -72.831985     -201.076370      -65.602158
 H         -75.109459     -198.107208      -66.865097
 H         -74.810158     -201.848541      -65.016373
 C         -74.693962     -197.609207      -67.759010
 C         -74.689789     -196.084549      -67.807480
 C         -74.021217     -198.399872      -68.804138
 C         -73.501259     -195.426193      -68.540276
 C         -73.680504     -197.541641      -70.034424
 C         -72.849731     -196.292191      -69.589127
 H         -74.772217     -195.418625      -66.916466
 H         -75.624390     -195.816315      -68.321800
 H         -73.109024     -198.805145      -68.358086
 H         -74.685211     -199.198395      -69.023529
 H         -72.696770     -195.247131      -67.783173
 H         -73.728394     -194.486557      -69.062721
 H         -74.632133     -197.277496      -70.635544
 H         -73.027550     -198.109467      -70.662285
 H         -71.841515     -196.609497      -69.200630
 H         -72.794434     -195.707016      -70.447495
