20
 generated by VMD
 C         -58.468624     -159.093933      -57.637367
 N         -59.280807     -158.315216      -57.884068
 H         -59.628201     -159.349640      -54.156731
 H         -57.686287     -159.761307      -57.388676
 C         -59.455906     -160.401520      -53.788910
 C         -58.451721     -160.669678      -52.681534
 C         -60.659180     -161.444916      -53.803844
 C         -59.196953     -160.865112      -51.354809
 C         -61.318871     -161.755768      -52.466846
 C         -60.186817     -162.064346      -51.441975
 H         -57.744308     -159.858826      -52.573318
 H         -57.926823     -161.727905      -52.789486
 H         -61.462643     -161.178314      -54.511421
 H         -60.207794     -162.280243      -54.319042
 H         -59.749676     -159.898865      -51.153275
 H         -58.543655     -160.775299      -50.384373
 H         -62.028648     -162.534439      -52.549461
 H         -61.871986     -160.906647      -52.122093
 H         -60.666916     -162.289566      -50.522369
 H         -59.775772     -163.111313      -51.635067
