20
 generated by VMD
 C         -33.694187      -96.283859      -25.258690
 N         -32.884701      -97.129669      -25.043915
 H         -34.827698      -93.648003      -27.352381
 H         -34.326580      -95.483490      -25.359167
 C         -34.851898      -93.394524      -28.430763
 C         -36.009205      -93.964409      -29.212503
 C         -33.578949      -93.320107      -29.183550
 C         -36.186871      -93.189377      -30.421469
 C         -33.761284      -92.634758      -30.554897
 C         -34.963959      -92.976486      -31.372509
 H         -36.991581      -93.998405      -28.612167
 H         -35.672009      -94.984688      -29.415503
 H         -32.810177      -92.741432      -28.560690
 H         -33.194427      -94.300484      -29.482964
 H         -36.330120      -92.150032      -30.045433
 H         -37.078720      -93.362518      -31.070446
 H         -32.755539      -92.649612      -31.108501
 H         -33.829205      -91.543434      -30.440060
 H         -34.995667      -92.201424      -32.007263
 H         -34.718567      -93.894943      -31.998091
