20
 generated by VMD
 C         -19.670769      -63.952618      -16.483624
 N         -20.063452      -63.084557      -17.157915
 H         -23.409664      -63.255669      -17.106714
 H         -19.529591      -64.783478      -15.713185
 C         -23.971073      -64.112823      -17.557714
 C         -24.434031      -64.216942      -18.976145
 C         -24.413584      -65.199791      -16.543041
 C         -24.692764      -65.712013      -19.350832
 C         -24.807291      -66.609436      -17.193840
 C         -25.566587      -66.523781      -18.407682
 H         -23.703279      -63.714970      -19.580952
 H         -25.329714      -63.644974      -19.141251
 H         -23.541765      -65.391632      -15.917123
 H         -25.312565      -64.811066      -16.091648
 H         -23.734140      -66.243645      -19.577986
 H         -25.181778      -65.734352      -20.371740
 H         -25.350067      -67.183235      -16.438524
 H         -23.841888      -67.117500      -17.381874
 H         -25.697365      -67.531593      -18.765705
 H         -26.565969      -66.066277      -18.339123
