20
 generated by VMD
 C         -28.437813      -86.453979      -26.524410
 N         -27.681412      -87.265038      -26.739262
 H         -31.027430      -87.324989      -25.059761
 H         -29.100595      -85.678123      -26.155996
 C         -31.966000      -87.521133      -25.567677
 C         -33.019718      -88.064888      -24.674494
 C         -32.141521      -87.870895      -27.059196
 C         -34.374699      -87.561287      -25.173094
 C         -33.543957      -87.471939      -27.650768
 C         -34.658161      -88.045883      -26.572218
 H         -32.841370      -87.587677      -23.611950
 H         -33.238773      -89.169891      -24.631544
 H         -31.447289      -87.268478      -27.658037
 H         -31.998510      -88.947182      -27.275112
 H         -34.509995      -86.523285      -25.062019
 H         -35.184387      -87.899689      -24.509644
 H         -33.568825      -87.757584      -28.730947
 H         -33.646435      -86.329666      -27.689247
 H         -35.582432      -87.734520      -27.075083
 H         -34.506233      -89.196335      -26.661757
