20
 generated by VMD
 C         -28.486879      -88.165962      -26.104496
 N         -28.472153      -87.001518      -26.133095
 H         -31.211044      -89.369476      -26.332157
 H         -28.325703      -89.303452      -26.032124
 C         -32.201206      -88.967194      -26.448898
 C         -33.114254      -88.915611      -25.308142
 C         -32.692600      -88.851486      -27.855841
 C         -34.121700      -87.747971      -25.447498
 C         -33.833546      -87.798225      -27.878099
 C         -34.916893      -87.993805      -26.719477
 H         -32.409161      -88.790787      -24.360218
 H         -33.800488      -89.876389      -25.299580
 H         -31.909872      -88.484344      -28.586147
 H         -33.199318      -89.680695      -28.277910
 H         -33.626774      -86.722816      -25.357567
 H         -34.815136      -87.769531      -24.470942
 H         -34.173752      -87.899994      -28.881184
 H         -33.383068      -86.798332      -27.868513
 H         -35.607971      -87.235970      -26.870533
 H         -35.358883      -88.981941      -26.666437
