20
 generated by VMD
 C         -13.040325      -43.355286       -6.809518
 N         -12.840119      -42.254547       -6.975930
 H         -14.523782      -43.878349       -8.441107
 H         -14.562584      -42.536064       -9.631002
 C         -15.095034      -43.529106       -9.317066
 C         -16.557846      -43.241470       -9.010745
 C         -14.936273      -44.516041      -10.426238
 C         -17.130917      -42.571377      -10.260802
 C         -15.559720      -43.872929      -11.728078
 C         -17.006123      -43.380875      -11.479826
 H         -16.626451      -42.490788       -8.198057
 H         -17.101952      -44.167179       -8.774485
 H         -13.816309      -44.675739      -10.584301
 H         -15.477653      -45.472454      -10.290779
 H         -16.648989      -41.605415      -10.413600
 H         -18.170351      -42.400902      -10.017084
 H         -15.466295      -44.648476      -12.446685
 H         -14.953106      -43.031139      -12.182275
 H         -17.416828      -42.854095      -12.358882
 H         -17.611765      -44.309940      -11.422846
