20
 generated by VMD
 C         -72.499496     -198.816010      -65.539642
 N         -73.506577     -199.341003      -65.787598
 H         -71.014732     -196.157822      -67.582603
 H         -71.630096     -198.205612      -65.509285
 C         -72.089462     -196.055374      -67.794060
 C         -72.908279     -195.014969      -67.060669
 C         -72.512497     -196.675888      -69.100708
 C         -74.259155     -194.966583      -67.751999
 C         -73.868156     -197.148834      -68.947289
 C         -74.812210     -196.358063      -67.948090
 H         -72.339607     -194.131805      -67.207588
 H         -73.203972     -195.326157      -66.012306
 H         -72.454323     -195.826370      -69.808838
 H         -71.862419     -197.483215      -69.440712
 H         -74.244583     -194.368698      -68.675461
 H         -74.983376     -194.514191      -67.072662
 H         -73.781525     -198.131454      -68.499092
 H         -74.257751     -197.270294      -69.966667
 H         -75.775108     -196.419357      -68.304832
 H         -74.751022     -197.077911      -66.951500
