20
 generated by VMD
 C         -65.977524     -177.792389      -56.889496
 N         -66.674232     -176.904892      -57.191746
 H         -64.548584     -175.671158      -58.833313
 H         -65.315872     -178.602600      -56.760551
 C         -64.414536     -174.716019      -59.154629
 C         -65.656647     -173.852493      -59.075577
 C         -63.452057     -174.495819      -60.327435
 C         -65.199852     -172.490662      -59.008335
 C         -63.061653     -172.964020      -60.388908
 C         -64.414818     -172.042969      -60.164722
 H         -66.288284     -174.078690      -58.142422
 H         -66.230995     -173.982925      -59.997849
 H         -62.577480     -175.083527      -60.123764
 H         -64.027100     -174.765701      -61.237099
 H         -64.522301     -172.318619      -58.130756
 H         -66.068245     -171.818741      -58.889519
 H         -62.647938     -172.884369      -61.349026
 H         -62.378597     -172.578598      -59.587246
 H         -64.119476     -170.929810      -60.062950
 H         -64.959892     -172.178970      -61.114098
