20
 generated by VMD
 C         -35.084068      -97.266769      -26.360235
 N         -34.415337      -97.709427      -25.547455
 H         -35.615715      -94.046448      -27.648434
 H         -35.777073      -96.655899      -27.020552
 C         -35.290730      -94.006767      -28.684271
 C         -35.977608      -94.961433      -29.612310
 C         -33.868076      -93.735687      -29.010250
 C         -35.814198      -94.526375      -31.054384
 C         -33.770844      -93.249580      -30.428514
 C         -34.344097      -94.253052      -31.395046
 H         -36.955956      -95.104980      -29.233728
 H         -35.453945      -95.904350      -29.421886
 H         -33.460236      -92.869064      -28.501661
 H         -33.245003      -94.562889      -28.737997
 H         -36.243069      -93.545349      -31.150120
 H         -36.373043      -95.241180      -31.710199
 H         -32.749634      -93.067230      -30.766338
 H         -34.271778      -92.256493      -30.460203
 H         -34.564247      -93.703102      -32.507854
 H         -33.756313      -95.151985      -31.466377
