20
 generated by VMD
 C         -60.352066     -170.241425      -55.109589
 N         -59.261135     -170.263229      -55.405800
 H         -63.303112     -170.579071      -56.517761
 H         -61.352688     -170.259766      -54.773815
 C         -63.404137     -169.572662      -56.983376
 C         -62.398106     -169.024506      -57.880947
 C         -64.340797     -168.790756      -56.215466
 C         -62.995583     -167.910446      -58.775658
 C         -65.018387     -167.658646      -57.107002
 C         -63.901787     -166.949905      -57.917320
 H         -61.889046     -169.703781      -58.585346
 H         -61.646454     -168.513351      -57.204102
 H         -65.223900     -169.485321      -55.736423
 H         -63.708523     -168.488098      -55.343300
 H         -63.499969     -168.420319      -59.589970
 H         -62.191463     -167.433151      -59.307098
 H         -65.525703     -166.984268      -56.365456
 H         -65.866249     -168.143311      -57.835491
 H         -64.238678     -166.173447      -58.553574
 H         -63.331772     -166.420776      -57.122696
