20
 generated by VMD
 C         -30.385143      -75.887138      -22.963844
 N         -30.918032      -75.336357      -23.886280
 H         -28.941408      -78.852539      -21.580338
 H         -29.943611      -76.299538      -22.125200
 C         -28.122129      -78.167046      -21.617287
 C         -27.338158      -78.202103      -22.907640
 C         -27.588642      -77.424850      -20.353039
 C         -26.721685      -76.864258      -23.171072
 C         -26.877562      -76.125343      -20.733000
 C         -25.912512      -76.309662      -21.961002
 H         -27.905878      -78.544891      -23.750093
 H         -26.587997      -78.843216      -22.671362
 H         -28.454077      -77.145988      -19.692619
 H         -26.884262      -78.041634      -19.785868
 H         -27.473656      -76.091370      -23.287733
 H         -26.222075      -76.959259      -24.128138
 H         -26.301508      -75.697090      -19.908535
 H         -27.633339      -75.284752      -21.113604
 H         -25.323210      -75.416214      -22.150034
 H         -25.354385      -77.261177      -21.626099
