20
 generated by VMD
 C         -22.928545      -68.496132      -16.597933
 N         -23.046602      -69.266594      -15.741319
 H         -24.009604      -65.920647      -19.008583
 H         -23.052689      -67.839806      -17.552950
 C         -24.539778      -66.862099      -19.293303
 C         -23.992851      -67.647797      -20.386301
 C         -26.003433      -66.937302      -18.954792
 C         -24.431715      -69.061073      -20.506474
 C         -26.611715      -68.381866      -19.252935
 C         -26.005678      -68.976593      -20.559814
 H         -22.868549      -67.651558      -20.180283
 H         -24.169819      -67.091209      -21.321367
 H         -26.132853      -66.984688      -17.950920
 H         -26.441217      -66.185570      -19.616261
 H         -23.985096      -69.601006      -19.756899
 H         -24.059198      -69.440247      -21.436407
 H         -27.671276      -68.292870      -19.280802
 H         -26.193125      -69.070251      -18.526436
 H         -26.344278      -70.049622      -20.814049
 H         -26.370581      -68.394424      -21.469589
