20
 generated by VMD
 C         -39.798222      -99.354706      -28.494152
 N         -38.983707     -100.015884      -27.972637
 H         -37.109604      -98.935402      -30.333633
 H         -40.379326      -98.537727      -29.048956
 C         -36.371681      -98.304810      -30.715075
 C         -35.804447      -98.561737      -32.103016
 C         -35.473770      -97.884033      -29.631573
 C         -34.580765      -97.721634      -32.345116
 C         -34.338055      -96.970871      -30.025043
 C         -33.613590      -97.728172      -31.070457
 H         -36.638241      -98.432899      -32.796680
 H         -35.439323      -99.660721      -32.208363
 H         -36.046040      -97.384933      -28.849260
 H         -35.054512      -98.818741      -29.146816
 H         -34.955212      -96.686371      -32.627815
 H         -34.120235      -98.040054      -33.256649
 H         -33.653339      -96.584221      -29.233917
 H         -34.909138      -96.202057      -30.554979
 H         -32.675285      -97.241104      -31.496529
 H         -33.415276      -98.693306      -30.724771
