20
 generated by VMD
 C         -70.252861     -183.044769      -64.128586
 N         -70.091141     -183.401016      -65.252754
 H         -68.182968     -180.363266      -62.670803
 H         -70.306763     -182.733826      -63.088551
 C         -67.695412     -180.570892      -61.699589
 C         -67.830368     -181.994522      -61.219692
 C         -66.907188     -179.580658      -60.959160
 C         -66.482841     -182.458466      -60.888832
 C         -65.651909     -180.121826      -60.338726
 C         -65.858154     -181.558640      -59.880070
 H         -68.322441     -182.612534      -61.935295
 H         -68.550316     -182.042435      -60.459473
 H         -66.480324     -178.724060      -61.601791
 H         -67.505402     -179.062180      -60.198849
 H         -65.758476     -182.661758      -61.840813
 H         -66.752602     -183.434479      -60.432205
 H         -65.260216     -179.445999      -59.547348
 H         -64.898079     -180.082031      -61.107742
 H         -64.858948     -181.923798      -59.549561
 H         -66.490723     -181.435959      -59.060020
