20
 generated by VMD
 C         -10.525835      -37.331093       -7.651391
 N         -10.604332      -36.273647       -8.070179
 H         -13.469161      -37.583149       -7.675032
 H         -14.417737      -38.484379       -6.464092
 C         -14.059966      -38.449074       -7.514905
 C         -13.259607      -39.716137       -7.583904
 C         -15.172703      -38.508732       -8.478561
 C         -14.126975      -40.964188       -7.349905
 C         -16.029242      -39.749794       -8.415325
 C         -15.256955      -41.039299       -8.318372
 H         -12.446030      -39.843494       -6.845522
 H         -12.722787      -39.788822       -8.572394
 H         -15.739330      -37.600574       -8.369216
 H         -14.701556      -38.358433       -9.490344
 H         -14.437133      -41.017826       -6.338632
 H         -13.448800      -41.836437       -7.472828
 H         -16.648317      -39.755058       -9.268359
 H         -16.749134      -39.616299       -7.539324
 H         -15.902703      -41.891945       -8.067044
 H         -14.826189      -41.268665       -9.338806
