20
 generated by VMD
 C         -68.037796     -179.572739      -58.860168
 N         -68.118370     -179.825546      -60.010906
 H         -67.388535     -177.163971      -59.911758
 H         -68.018242     -179.418427      -57.790245
 C         -66.451103     -176.699493      -60.005302
 C         -66.079880     -176.306473      -61.384315
 C         -65.298302     -177.330276      -59.236012
 C         -65.045555     -175.171814      -61.334595
 C         -64.268333     -176.197220      -59.103821
 C         -63.793854     -175.475922      -60.507149
 H         -67.014359     -175.968231      -61.825035
 H         -65.722359     -177.278275      -61.826317
 H         -65.579384     -177.408981      -58.207848
 H         -64.872360     -178.328003      -59.621372
 H         -65.637558     -174.234253      -61.234959
 H         -64.661644     -175.205292      -62.423588
 H         -63.363770     -176.529419      -58.514820
 H         -64.587959     -175.371704      -58.461044
 H         -63.267563     -174.538101      -60.307312
 H         -63.152138     -176.319733      -60.868595
