20
 generated by VMD
 C         -62.823444     -173.596588      -55.535339
 N         -63.489689     -174.182938      -54.799232
 H         -61.737743     -171.930542      -58.559326
 H         -62.162956     -173.118759      -56.246548
 C         -62.554916     -171.245850      -58.609409
 C         -62.719189     -170.045364      -57.713387
 C         -63.878876     -171.808197      -59.194347
 C         -63.766888     -168.983566      -58.383362
 C         -64.804962     -170.679550      -59.698715
 C         -65.096718     -169.550293      -58.815933
 H         -61.779812     -169.463959      -57.532200
 H         -63.124695     -170.366562      -56.670837
 H         -63.843613     -172.554855      -59.951530
 H         -64.360939     -172.403046      -58.394634
 H         -63.279194     -168.422791      -59.217510
 H         -63.942501     -168.231064      -57.523895
 H         -65.748749     -171.164520      -59.857304
 H         -64.517380     -170.315872      -60.623604
 H         -65.740738     -168.767273      -59.338402
 H         -65.672951     -169.906845      -57.923927
