20
 generated by VMD
 C         -39.888988     -105.638420      -36.995926
 N         -40.282291     -106.615585      -37.526062
 H         -38.618721     -107.908173      -34.877308
 H         -39.703194     -104.685135      -36.572102
 C         -39.250454     -108.444878      -34.173912
 C         -38.407234     -109.271156      -33.227448
 C         -40.601498     -109.072685      -34.507362
 C         -39.200508     -109.501129      -31.907385
 C         -41.366024     -109.311287      -33.125587
 C         -40.600460     -110.125183      -32.173321
 H         -37.379753     -108.953400      -33.016144
 H         -38.143242     -110.187569      -33.677971
 H         -41.251511     -108.501671      -35.208473
 H         -40.526901     -110.141457      -34.907028
 H         -39.473072     -108.628044      -31.274260
 H         -38.476536     -110.165771      -31.226177
 H         -42.253689     -109.888626      -33.331276
 H         -41.642200     -108.399498      -32.717339
 H         -41.150257     -110.305023      -31.164478
 H         -40.470318     -111.052872      -32.568493
