20
 generated by VMD
 C         -37.924809     -114.232559      -35.288498
 N         -38.601120     -115.121643      -35.112598
 H         -41.422199     -115.367226      -36.641144
 H         -37.233490     -113.469177      -35.743256
 C         -42.532421     -115.069313      -36.850052
 C         -42.851048     -114.969383      -38.309982
 C         -43.479103     -114.947426      -35.721939
 C         -44.017494     -115.892120      -38.504242
 C         -44.816521     -115.654015      -36.016258
 C         -45.207741     -115.502747      -37.571529
 H         -41.975742     -115.111885      -38.953907
 H         -43.100243     -113.891487      -38.429337
 H         -43.090092     -115.503448      -34.816902
 H         -43.777512     -113.876503      -35.580612
 H         -43.770054     -116.987198      -38.350643
 H         -44.323383     -115.807617      -39.539604
 H         -45.557808     -115.156616      -35.342934
 H         -44.867825     -116.731758      -35.978504
 H         -46.058540     -116.073784      -37.728977
 H         -45.711803     -114.503319      -37.565708
