20
 generated by VMD
 C         -51.620419     -145.929794      -43.927509
 N         -51.477085     -146.420883      -44.920929
 H         -53.992413     -145.465668      -46.981747
 H         -51.657028     -145.501312      -42.916386
 C         -53.855576     -144.686676      -47.691757
 C         -52.816624     -144.548721      -48.740944
 C         -54.848240     -143.447449      -47.436928
 C         -53.426094     -143.963623      -50.076984
 C         -55.373066     -143.046906      -48.757187
 C         -54.368618     -142.763489      -49.821175
 H         -52.439499     -145.541565      -48.965210
 H         -52.040398     -143.960770      -48.351795
 H         -55.686275     -143.779449      -46.794800
 H         -54.123131     -142.701523      -46.896469
 H         -54.041042     -144.795624      -50.572479
 H         -52.540001     -143.583618      -50.755199
 H         -56.037403     -142.125137      -48.686340
 H         -55.971199     -143.877472      -48.988922
 H         -54.803631     -142.417374      -50.737179
 H         -53.838745     -141.935547      -49.552906
