20
 generated by VMD
 C         -22.675159      -55.206017      -15.192385
 N         -23.007498      -55.173187      -16.306923
 H         -19.469444      -54.399189      -15.345120
 H         -22.689970      -55.544426      -14.255065
 C         -19.213758      -55.301178      -14.801429
 C         -18.992998      -55.186260      -13.374520
 C         -19.600643      -56.601944      -15.472485
 C         -19.513840      -56.324913      -12.525634
 C         -19.378922      -57.902061      -14.656365
 C         -19.085138      -57.644753      -13.102086
 H         -19.544012      -54.309559      -13.065428
 H         -17.894974      -55.136875      -13.161549
 H         -20.587606      -56.472927      -15.746590
 H         -18.909891      -56.802231      -16.330854
 H         -20.571156      -56.295769      -12.278652
 H         -19.046124      -56.195183      -11.505652
 H         -18.537693      -58.494110      -15.092790
 H         -20.293861      -58.535534      -14.727461
 H         -19.462801      -58.499317      -12.574083
 H         -17.976954      -57.813869      -13.010434
