20
 generated by VMD
 C         -32.378403      -93.421791      -25.383810
 N         -32.997158      -94.368706      -25.567139
 H         -33.739552      -94.900352      -28.583244
 H         -31.708363      -92.603554      -25.109165
 C         -34.334991      -94.241127      -29.179413
 C         -35.440620      -93.582146      -28.562536
 C         -33.704136      -93.379761      -30.240959
 C         -35.358494      -92.087090      -28.147280
 C         -33.553272      -91.914482      -29.878225
 C         -34.862419      -91.292206      -29.409447
 H         -35.812729      -94.146988      -27.625881
 H         -36.335918      -93.425392      -29.171099
 H         -32.708130      -93.747238      -30.603779
 H         -34.325275      -93.473312      -31.143978
 H         -34.725510      -91.811096      -27.327482
 H         -36.374157      -91.711540      -27.751408
 H         -33.229294      -91.333405      -30.764194
 H         -32.771309      -91.927597      -29.160172
 H         -34.699207      -90.184341      -29.209227
 H         -35.473042      -91.339706      -30.313362
