20
 generated by VMD
 C         -57.985180     -150.662445      -48.849785
 N         -58.038158     -151.847321      -48.646019
 H         -55.300610     -149.739639      -47.582745
 H         -57.776867     -149.600906      -49.079342
 C         -55.184563     -149.460602      -48.636456
 C         -54.425488     -150.380875      -49.475231
 C         -55.173538     -147.897903      -48.933468
 C         -54.139824     -149.897247      -50.928986
 C         -54.912682     -147.531662      -50.430092
 C         -53.806995     -148.290787      -51.057629
 H         -54.965427     -151.354340      -49.462162
 H         -53.331890     -150.412964      -49.060234
 H         -56.155575     -147.451752      -48.641884
 H         -54.301449     -147.655136      -48.357750
 H         -55.112770     -149.994431      -51.437805
 H         -53.347881     -150.437195      -51.535145
 H         -54.886608     -146.472458      -50.579010
 H         -55.958279     -147.744415      -50.968143
 H         -53.740864     -148.163986      -52.214149
 H         -52.785442     -148.141541      -50.730675
