20
 generated by VMD
 C         -60.369865     -169.647110      -55.284397
 N         -59.427532     -169.060272      -55.260090
 H         -63.092201     -170.587967      -56.739071
 H         -61.245987     -170.255173      -55.156639
 C         -63.383560     -169.593842      -57.005127
 C         -62.652443     -169.057922      -58.163883
 C         -63.746922     -168.656494      -55.888962
 C         -63.235744     -167.742981      -58.713329
 C         -64.307877     -167.267136      -56.433624
 C         -63.526115     -166.677002      -57.616226
 H         -62.848835     -169.858429      -58.997772
 H         -61.629536     -169.102356      -57.878540
 H         -64.608475     -169.035019      -55.246834
 H         -62.955254     -168.294159      -55.176540
 H         -64.189468     -167.880966      -59.267002
 H         -62.581039     -167.497986      -59.577606
 H         -64.439941     -166.635117      -55.513611
 H         -65.416512     -167.584579      -56.745777
 H         -64.140968     -165.886185      -58.108894
 H         -62.676178     -166.139313      -57.294502
