20
 generated by VMD
 C         -12.932722      -30.148933       -8.372102
 N         -13.868548      -30.490499       -8.874148
 H         -11.025966      -30.909954       -4.985396
 H         -10.843468      -31.610926       -3.433959
 C         -10.826159      -31.865665       -4.518587
 C          -9.434399      -32.439365       -4.871882
 C         -11.879873      -32.826103       -4.898409
 C          -9.236669      -33.846386       -4.239616
 C         -11.788220      -34.205154       -4.252789
 C         -10.370892      -34.844872       -4.475881
 H          -8.667716      -31.737581       -4.422097
 H          -9.214191      -32.373539       -5.943134
 H         -12.798634      -32.330429       -4.565822
 H         -11.998755      -32.776215       -5.986902
 H          -9.102826      -33.775467       -3.171916
 H          -8.249888      -34.209667       -4.535817
 H         -12.599820      -34.831097       -4.656340
 H         -11.958367      -34.193481       -3.200119
 H         -10.236017      -35.728184       -3.776074
 H         -10.247017      -35.317028       -5.464317
