20
 generated by VMD
 C         -78.088768     -203.425629      -69.547546
 N         -78.817528     -204.337357      -69.358658
 H         -75.716972     -202.175400      -67.515579
 H         -77.367538     -202.576752      -69.593880
 C         -75.017738     -201.780533      -68.297958
 C         -74.932449     -200.238892      -68.542389
 C         -73.771072     -202.412735      -68.790993
 C         -74.814255     -200.054886      -70.089531
 C         -72.936142     -201.799973      -69.828293
 C         -73.824188     -201.017960      -70.875877
 H         -73.973473     -199.801651      -68.140373
 H         -75.717781     -199.652771      -68.130203
 H         -73.130775     -202.596558      -67.904251
 H         -73.968773     -203.536346      -69.166527
 H         -74.522850     -199.048141      -70.367615
 H         -75.787308     -200.284683      -70.617325
 H         -72.415237     -202.617996      -70.288780
 H         -72.142242     -201.157059      -69.488480
 H         -73.043091     -200.426010      -71.468483
 H         -74.320351     -201.669861      -71.526741
