20
 generated by VMD
 C         -60.139168     -156.224136      -54.938145
 N         -60.378117     -155.230194      -55.381523
 H         -59.967823     -157.451477      -51.667423
 H         -59.921185     -157.106537      -54.329460
 C         -58.920197     -157.438202      -52.071583
 C         -58.229740     -156.064987      -52.251041
 C         -57.994038     -158.586441      -51.986675
 C         -57.145786     -155.804367      -51.226597
 C         -57.022789     -158.366470      -50.814812
 C         -56.175156     -157.056183      -51.002190
 H         -59.039078     -155.344223      -52.384975
 H         -57.850513     -156.066345      -53.233433
 H         -58.500099     -159.598862      -51.811508
 H         -57.428139     -158.745255      -52.918140
 H         -57.719769     -155.724060      -50.277782
 H         -56.621193     -154.851547      -51.283787
 H         -56.311127     -159.200089      -50.675156
 H         -57.537010     -158.412582      -49.906681
 H         -55.525173     -156.892303      -50.072857
 H         -55.379948     -157.095856      -51.763016
