20
 generated by VMD
 C         -38.749981      -99.011551      -27.228195
 N         -37.822369      -99.303574      -26.597132
 H         -37.311207      -97.441872      -30.312344
 H         -39.596165      -98.824692      -27.983349
 C         -36.267612      -96.986473      -30.542875
 C         -35.690826      -97.496605      -31.809181
 C         -35.281452      -96.569946      -29.492298
 C         -34.193657      -96.946838      -32.139183
 C         -34.318253      -95.513626      -30.148661
 C         -33.393555      -96.187218      -31.120939
 H         -36.286461      -97.338646      -32.693836
 H         -35.645447      -98.612816      -31.693850
 H         -35.812664      -96.094887      -28.689367
 H         -34.704952      -97.426079      -29.119341
 H         -34.453976      -96.437920      -33.057259
 H         -33.686443      -97.863152      -32.516815
 H         -33.624775      -95.218353      -29.331844
 H         -34.816368      -94.620903      -30.606678
 H         -32.809586      -95.261978      -31.429934
 H         -32.697884      -96.861938      -30.739964
