20
 generated by VMD
 C         -35.167889      -97.745377      -25.704636
 N         -35.793842      -97.521637      -26.649675
 H         -35.619579      -94.963112      -27.771433
 H         -34.756222      -97.983955      -24.702648
 C         -35.335403      -94.779465      -28.787008
 C         -35.821945      -95.657318      -29.984625
 C         -34.044518      -94.069656      -28.954342
 C         -35.638805      -94.941689      -31.350851
 C         -33.820816      -93.534988      -30.385452
 C         -34.188457      -94.583939      -31.518442
 H         -36.850952      -95.712868      -29.726532
 H         -35.348545      -96.678421      -29.906569
 H         -33.905006      -93.182610      -28.373108
 H         -33.243614      -94.777657      -28.744080
 H         -36.290665      -94.079002      -31.360283
 H         -36.022713      -95.628044      -32.207977
 H         -32.880306      -93.039978      -30.367186
 H         -34.666180      -92.782150      -30.534826
 H         -34.036434      -94.061867      -32.535912
 H         -33.572182      -95.503716      -31.703087
