20
 generated by VMD
 C         -24.783205      -70.510101      -16.559242
 N         -25.083658      -70.879608      -15.494003
 H         -23.888594      -68.489517      -18.763735
 H         -24.668173      -70.193710      -17.676092
 C         -24.521955      -68.659645      -19.618176
 C         -23.871180      -69.365417      -20.758469
 C         -25.833923      -68.057144      -19.620319
 C         -24.824406      -70.288170      -21.414690
 C         -26.695038      -69.130173      -20.297247
 C         -26.149893      -69.686592      -21.655378
 H         -23.005135      -69.896164      -20.418350
 H         -23.347790      -68.543381      -21.299528
 H         -26.150204      -67.933838      -18.616993
 H         -25.912989      -67.199249      -20.195263
 H         -24.855175      -71.223335      -20.794128
 H         -24.308329      -70.451691      -22.313971
 H         -27.736565      -68.865158      -20.399273
 H         -26.775953      -70.034370      -19.689005
 H         -26.856903      -70.451584      -22.022005
 H         -26.157068      -69.004593      -22.495983
