20
 generated by VMD
 C          -3.394233      -19.763477        3.463039
 N          -3.819313      -18.798725        3.091913
 H          -5.317909      -20.009312       -0.019381
 H          -6.176738      -21.248379       -1.028598
 C          -6.119170      -20.182100       -0.777549
 C          -5.653975      -19.450836       -2.095323
 C          -7.504560      -19.691038       -0.248295
 C          -6.785966      -19.494164       -3.150815
 C          -8.540634      -19.545717       -1.386556
 C          -8.034827      -18.794785       -2.590354
 H          -4.768079      -19.924892       -2.577261
 H          -5.295195      -18.405867       -1.861176
 H          -7.876599      -20.191471        0.653992
 H          -7.356028      -18.743086        0.239178
 H          -7.051963      -20.509527       -3.479409
 H          -6.378910      -18.974627       -4.064902
 H          -9.409576      -19.045464       -0.908913
 H          -8.875083      -20.563166       -1.621516
 H          -8.760651      -18.790749       -3.416355
 H          -7.868235      -17.703627       -2.403720
