20
 generated by VMD
 C          -1.185849      -13.215093        0.963614
 N          -0.465939      -13.025264        0.097996
 H          -4.561852      -12.944127        1.688759
 H          -5.879164      -13.333891        0.709193
 C          -5.171954      -13.830260        1.390731
 C          -5.944716      -14.331977        2.606836
 C          -4.368581      -14.958243        0.788335
 C          -6.927230      -15.374923        2.170979
 C          -5.237374      -16.183325        0.397460
 C          -6.131348      -16.565567        1.576880
 H          -6.597577      -13.560842        3.042049
 H          -5.311131      -14.783160        3.345474
 H          -3.728494      -14.689110       -0.081796
 H          -3.690489      -15.494705        1.530535
 H          -7.601964      -15.006430        1.424109
 H          -7.496160      -15.744536        3.024264
 H          -4.616378      -17.061827        0.253402
 H          -5.806685      -15.979169       -0.507902
 H          -6.840864      -17.307417        1.259957
 H          -5.568435      -17.041992        2.384852
