20
 generated by VMD
 C         -40.710987     -100.089722      -29.740850
 N         -40.328789     -100.218300      -28.631823
 H         -37.300938     -100.109726      -30.566500
 H         -40.916420      -99.741646      -30.718147
 C         -36.475609      -99.537323      -30.832619
 C         -36.025291      -99.435112      -32.274277
 C         -35.406525      -99.247070      -29.698561
 C         -34.868256      -98.392174      -32.493420
 C         -34.212631      -98.283302      -29.904373
 C         -33.668213      -98.293503      -31.439142
 H         -36.748993      -99.042427      -32.933754
 H         -35.783527     -100.519081      -32.503765
 H         -35.981792      -99.087807      -28.816933
 H         -34.801861     -100.221947      -29.574883
 H         -35.229351      -97.343254      -32.635571
 H         -34.396496      -98.673347      -33.402702
 H         -33.358295      -98.657646      -29.326086
 H         -34.627186      -97.240662      -29.604303
 H         -33.050293      -97.374100      -31.631323
 H         -32.969891      -99.132767      -31.542177
