20
 generated by VMD
 C          -3.749430      -18.730057        2.172110
 N          -3.210232      -18.305136        3.054970
 H          -5.556968      -20.494314        0.281491
 H          -6.297692      -21.323311       -1.100935
 C          -6.194162      -20.374678       -0.579235
 C          -5.577487      -19.198029       -1.394447
 C          -7.601806      -19.936953       -0.129099
 C          -6.414042      -18.737326       -2.553742
 C          -8.387134      -19.433048       -1.322384
 C          -7.805267      -18.342348       -2.185610
 H          -4.600542      -19.552910       -1.840797
 H          -5.281421      -18.481087       -0.683398
 H          -8.123185      -20.759302        0.312338
 H          -7.554221      -19.186609        0.680078
 H          -6.497683      -19.565462       -3.245064
 H          -5.866926      -17.911606       -3.016638
 H          -9.332202      -19.016895       -0.903915
 H          -8.674509      -20.224096       -2.011229
 H          -8.403120      -18.196114       -3.078856
 H          -7.893341      -17.352434       -1.694392
