20
 generated by VMD
 C         -10.917275      -25.817551       -0.848092
 N         -10.979837      -24.726370       -0.599625
 H          -7.139120      -25.653090       -0.864176
 H          -8.723567      -25.329437       -1.630738
 C          -7.609392      -25.350014       -1.766600
 C          -7.310696      -26.205406       -2.980358
 C          -7.232035      -23.828465       -2.007309
 C          -7.814035      -25.610161       -4.304936
 C          -7.707372      -23.233091       -3.267926
 C          -7.378296      -24.107353       -4.507277
 H          -7.460661      -27.311010       -2.824871
 H          -6.148166      -26.191975       -3.093530
 H          -7.387878      -23.158522       -1.137824
 H          -6.151830      -23.878120       -2.015911
 H          -8.942259      -25.685846       -4.360815
 H          -7.515455      -26.265326       -5.175115
 H          -7.269775      -22.267342       -3.433726
 H          -8.785519      -23.122807       -3.185469
 H          -7.816440      -23.603409       -5.357841
 H          -6.324005      -24.028704       -4.660730
