20
 generated by VMD
 C         -58.763828     -160.125595      -56.973675
 N         -58.417370     -159.950836      -58.131577
 H         -58.730423     -162.474945      -54.951050
 H         -58.994984     -160.356857      -55.910305
 C         -59.534306     -162.223068      -54.240662
 C         -59.116104     -162.376770      -52.816120
 C         -60.885288     -162.391830      -54.682693
 C         -60.230038     -162.052460      -51.733437
 C         -61.856941     -161.973358      -53.591904
 C         -61.536320     -162.468903      -52.218380
 H         -58.238525     -161.630692      -52.706921
 H         -58.848255     -163.400467      -52.662617
 H         -61.107758     -161.892105      -55.605946
 H         -60.964779     -163.459686      -54.970642
 H         -60.041714     -161.082321      -51.388470
 H         -60.029465     -162.776566      -50.840359
 H         -62.880802     -162.406342      -53.594292
 H         -61.955990     -160.855164      -53.683643
 H         -62.318851     -162.157486      -51.495609
 H         -61.533508     -163.530441      -52.313850
