20
 generated by VMD
 C         -60.728474     -155.134857      -52.043091
 N         -60.630737     -153.935562      -52.188774
 H         -57.768089     -154.066254      -52.961468
 H         -60.957352     -156.193604      -51.901314
 C         -57.025639     -154.011154      -52.172668
 C         -57.484463     -154.005936      -50.721481
 C         -55.708046     -153.314529      -52.411621
 C         -56.308968     -154.429947      -49.863602
 C         -54.576111     -153.773071      -51.469822
 C         -54.981846     -153.593353      -50.087017
 H         -58.426323     -154.637558      -50.801338
 H         -57.646023     -152.924240      -50.415405
 H         -55.351185     -153.413757      -53.433189
 H         -55.825413     -152.271332      -52.171486
 H         -56.050556     -155.552948      -50.112400
 H         -56.670479     -154.325333      -48.764446
 H         -53.668686     -153.056091      -51.547092
 H         -54.179333     -154.735535      -51.742523
 H         -54.215923     -153.964081      -49.374920
 H         -55.213085     -152.491898      -50.029999
