20
 generated by VMD
 C         -21.288702      -65.247009      -17.166059
 N         -20.635403      -65.675217      -16.284414
 H         -24.513597      -63.432812      -18.075804
 H         -21.957802      -64.891312      -17.946907
 C         -24.743870      -64.571686      -18.217117
 C         -24.470564      -65.031830      -19.616753
 C         -24.962824      -65.480499      -17.107725
 C         -24.324272      -66.592682      -19.726143
 C         -24.897532      -67.010796      -17.435396
 C         -25.204792      -67.363838      -18.875183
 H         -23.514336      -64.703346      -20.141512
 H         -25.281450      -64.680862      -20.216803
 H         -24.242641      -65.328125      -16.433880
 H         -25.928278      -65.233803      -16.704803
 H         -23.229988      -66.921341      -19.549425
 H         -24.556065      -66.792786      -20.803097
 H         -25.559164      -67.659248      -16.756918
 H         -23.835741      -67.337929      -17.281708
 H         -25.220877      -68.505791      -19.034203
 H         -26.247581      -67.074661      -18.990009
