20
 generated by VMD
 C         -48.014183     -140.114899      -45.896645
 N         -46.956009     -139.824585      -45.691933
 H         -50.964600     -138.972427      -45.191097
 H         -49.049484     -140.198608      -46.037750
 C         -51.931477     -139.242035      -45.632576
 C         -52.151363     -139.444199      -47.058651
 C         -53.250690     -139.181519      -44.726299
 C         -53.177277     -140.491241      -47.442345
 C         -54.158985     -140.300171      -45.071167
 C         -54.390663     -140.302582      -46.542793
 H         -51.199120     -139.774429      -47.474483
 H         -52.595173     -138.543701      -47.478779
 H         -52.849762     -139.300705      -43.707638
 H         -53.890148     -138.320923      -44.858578
 H         -52.849365     -141.562637      -47.181667
 H         -53.389622     -140.519821      -48.566509
 H         -55.066719     -140.113464      -44.581326
 H         -53.751896     -141.215347      -44.619957
 H         -55.173332     -141.089127      -46.682171
 H         -54.927212     -139.407211      -46.751064
