20
 generated by VMD
 C         -67.629234     -177.903549      -57.666004
 N         -67.310783     -178.767715      -56.939331
 H         -64.722183     -176.326767      -59.024616
 H         -67.972931     -177.218094      -58.420177
 C         -64.589371     -175.434250      -59.682365
 C         -65.784653     -174.531021      -59.643021
 C         -63.220551     -175.020996      -60.181759
 C         -65.386307     -173.094772      -59.573620
 C         -62.905472     -173.479538      -60.238934
 C         -64.189064     -172.656281      -60.412296
 H         -66.427269     -174.748062      -58.832012
 H         -66.364548     -174.743332      -60.617256
 H         -62.364998     -175.461533      -59.632954
 H         -63.092400     -175.353943      -61.291344
 H         -65.135101     -172.920959      -58.546814
 H         -66.282310     -172.555679      -59.775459
 H         -62.050869     -173.402908      -60.960854
 H         -62.527775     -173.266998      -59.254230
 H         -63.897324     -171.582458      -60.331100
 H         -64.660706     -172.898880      -61.418758
