20
 generated by VMD
 C         -10.472170      -33.195835       -8.849948
 N         -11.312212      -33.687679       -9.391192
 H         -13.007604      -33.876804       -6.269093
 H         -13.053093      -34.459549       -4.621445
 C         -12.975629      -34.799915       -5.660266
 C         -11.644649      -35.488987       -5.918789
 C         -14.142645      -35.642471       -6.171982
 C         -11.599982      -36.947071       -5.558176
 C         -14.035310      -37.143246       -5.704198
 C         -12.683743      -37.735268       -6.187221
 H         -10.925709      -34.998699       -5.225966
 H         -11.265049      -35.372097       -6.964419
 H         -15.141829      -35.335499       -5.819524
 H         -14.145585      -35.607094       -7.247569
 H         -11.759859      -36.920650       -4.419862
 H         -10.584568      -37.271824       -5.822692
 H         -14.914350      -37.739887       -6.107397
 H         -14.102551      -37.169579       -4.594091
 H         -12.644996      -38.758533       -5.918696
 H         -12.611562      -37.726501       -7.268742
