20
 generated by VMD
 C         -12.560530      -26.982134       -2.643184
 N         -12.584829      -27.781031       -1.877418
 H         -10.609762      -26.644644       -4.116658
 H          -9.369223      -26.196455       -5.219478
 C          -9.500871      -26.687452       -4.290774
 C          -8.980215      -28.079115       -4.579732
 C          -8.817167      -25.900949       -3.186345
 C          -7.471292      -28.339382       -4.424122
 C          -7.292351      -26.109436       -3.195567
 C          -6.881970      -27.520895       -3.262605
 H          -9.320730      -28.529165       -5.563529
 H          -9.511517      -28.742302       -3.921719
 H          -9.104956      -24.846645       -3.334740
 H          -9.217874      -26.246401       -2.238108
 H          -6.948913      -28.035366       -5.411197
 H          -7.207640      -29.443176       -4.381459
 H          -6.845551      -25.526999       -2.358222
 H          -6.940156      -25.532394       -4.051162
 H          -5.798989      -27.590757       -3.297031
 H          -7.155693      -28.015617       -2.329746
