20
 generated by VMD
 C         -29.904688      -89.453613      -25.322126
 N         -29.132429      -89.812431      -26.130621
 H         -32.054596      -91.070572      -26.900980
 H         -30.587181      -88.989731      -24.658445
 C         -32.925083      -90.761345      -27.464931
 C         -34.292549      -91.168083      -27.097570
 C         -32.669086      -89.590401      -28.282251
 C         -35.124992      -89.908188      -26.719095
 C         -33.505238      -88.323746      -27.790392
 C         -34.932785      -88.743095      -27.699480
 H         -34.069252      -91.817215      -26.242775
 H         -34.701527      -91.757149      -27.986120
 H         -31.652729      -89.175858      -28.227602
 H         -32.829136      -89.787636      -29.334011
 H         -34.863636      -89.581444      -25.634890
 H         -36.103653      -90.330353      -26.651539
 H         -33.464561      -87.456863      -28.476202
 H         -32.999950      -88.071602      -26.794451
 H         -35.607208      -87.935005      -27.427464
 H         -35.153332      -89.112411      -28.627277
