20
 generated by VMD
 C         -55.912159     -149.162415      -45.815239
 N         -55.577999     -149.979965      -45.058434
 H         -54.629990     -148.173889      -48.273613
 H         -56.024311     -148.375229      -46.583893
 C         -54.174904     -147.361206      -48.820652
 C         -53.123619     -147.422363      -49.839985
 C         -54.770039     -145.994583      -48.522160
 C         -53.532497     -146.711319      -51.071129
 C         -55.270592     -145.392166      -49.851482
 C         -54.071556     -145.309906      -50.806824
 H         -52.883850     -148.395432      -50.185146
 H         -52.232796     -146.886261      -49.302750
 H         -55.598217     -146.258484      -47.850990
 H         -53.994362     -145.290497      -47.922291
 H         -54.452934     -147.223312      -51.541901
 H         -52.704651     -146.694626      -51.866344
 H         -55.986797     -144.477676      -49.665501
 H         -56.049107     -145.983688      -50.278866
 H         -54.337910     -144.755692      -51.753262
 H         -53.197105     -144.783676      -50.441654
