20
 generated by VMD
 C         -80.334961     -206.822021      -74.014984
 N         -80.570045     -206.814529      -75.152969
 H         -76.612030     -207.688248      -73.157242
 H         -79.968750     -206.915741      -73.037308
 C         -76.482170     -207.714249      -72.045074
 C         -75.360901     -206.876801      -71.380859
 C         -77.246193     -208.724380      -71.335663
 C         -75.478180     -206.787231      -69.833412
 C         -77.467491     -208.208694      -69.841919
 C         -76.150719     -207.947861      -69.096573
 H         -75.333206     -205.837662      -71.739838
 H         -74.506020     -207.423767      -71.852180
 H         -78.219376     -208.832321      -71.786964
 H         -76.871552     -209.738480      -71.383644
 H         -75.928452     -205.810928      -69.553162
 H         -74.451614     -206.611267      -69.492058
 H         -78.024811     -208.913269      -69.333549
 H         -78.004303     -207.247696      -69.703140
 H         -76.310501     -207.655151      -67.962494
 H         -75.703590     -208.939529      -69.082230
