20
 generated by VMD
 C         -70.630608     -196.770691      -65.257027
 N         -69.828003     -197.493195      -65.666893
 H         -73.691933     -196.510361      -65.515663
 H         -71.286209     -196.164825      -64.662682
 C         -73.542946     -195.764648      -66.340378
 C         -72.988533     -194.362610      -66.097092
 C         -74.282738     -196.020569      -67.652565
 C         -72.519104     -193.725555      -67.463692
 C         -74.657303     -194.717361      -68.356781
 C         -73.474197     -193.823776      -68.638275
 H         -72.134300     -194.468430      -65.374947
 H         -73.745163     -193.783997      -65.694138
 H         -73.694481     -196.743423      -68.281700
 H         -75.245049     -196.526474      -67.487350
 H         -71.554695     -194.185287      -67.814125
 H         -72.317268     -192.627441      -67.317551
 H         -75.208817     -194.152985      -67.607803
 H         -75.278717     -194.824493      -69.273933
 H         -72.990089     -194.276093      -69.406525
 H         -73.627991     -192.828690      -69.187019
