20
 generated by VMD
 C         -11.465906      -33.570553       -9.105223
 N         -10.466992      -33.144650       -8.785970
 H         -12.315509      -34.901436       -7.324633
 H         -12.731719      -35.259438       -5.714576
 C         -12.665863      -35.731178       -6.676945
 C         -11.663224      -36.873993       -6.436000
 C         -14.003613      -36.277302       -7.140482
 C         -12.137194      -37.807491       -5.342618
 C         -14.533096      -37.073181       -5.949843
 C         -13.627719      -38.285240       -5.607932
 H         -10.710728      -36.444279       -6.093945
 H         -11.415649      -37.383076       -7.414012
 H         -14.655602      -35.428226       -7.307369
 H         -13.920656      -36.877758       -8.069484
 H         -12.075355      -37.407009       -4.325422
 H         -11.568832      -38.770199       -5.204732
 H         -15.540857      -37.486919       -6.268859
 H         -14.667636      -36.445393       -5.062526
 H         -14.022496      -38.697433       -4.703774
 H         -13.518974      -39.055431       -6.403337
