20
 generated by VMD
 C         -28.205059      -73.645554      -18.368225
 N         -29.048063      -73.379158      -17.599125
 H         -25.228880      -72.123619      -18.725889
 H         -27.208290      -73.916473      -18.885136
 C         -25.419472      -72.014320      -19.827772
 C         -24.559084      -72.766716      -20.678389
 C         -25.886871      -70.732704      -20.394463
 C         -25.241430      -73.066559      -21.960596
 C         -26.215178      -70.727684      -21.977505
 C         -25.580631      -71.837662      -22.771694
 H         -24.349388      -73.686256      -20.119511
 H         -23.674614      -72.334557      -20.863985
 H         -26.710209      -70.280258      -19.904802
 H         -25.082359      -69.936142      -20.349285
 H         -26.045933      -73.702255      -21.743826
 H         -24.562840      -73.693710      -22.502083
 H         -26.020279      -69.712959      -22.390396
 H         -27.284739      -70.733604      -22.064781
 H         -26.155132      -72.227989      -23.662193
 H         -24.562693      -71.515732      -23.044353
