20
 generated by VMD
 C         -38.207096      -98.901222      -27.302149
 N         -37.605122      -98.670074      -26.339714
 H         -36.976482      -96.906151      -29.605242
 H         -38.630058      -99.050125      -28.248398
 C         -35.915844      -96.767746      -29.957272
 C         -35.561676      -97.331528      -31.280472
 C         -34.835972      -95.880150      -29.215626
 C         -34.552586      -96.537727      -32.117928
 C         -34.155338      -94.960136      -30.161730
 C         -33.575775      -95.716125      -31.392849
 H         -36.482403      -97.488197      -31.919561
 H         -35.100185      -98.287979      -31.136333
 H         -35.326183      -95.125404      -28.553560
 H         -34.282372      -96.625114      -28.669312
 H         -35.020481      -95.778625      -32.780357
 H         -33.974541      -97.090485      -32.808132
 H         -33.417221      -94.431908      -29.551306
 H         -35.023010      -94.202576      -30.535053
 H         -33.138119      -94.845016      -32.067543
 H         -32.745186      -96.271492      -31.094149
