20
 generated by VMD
 C         -10.537133      -35.490055       -8.256175
 N         -10.233500      -36.378956       -8.834585
 H         -13.594629      -37.126266       -6.726155
 H         -14.635198      -38.306938       -5.877099
 C         -14.020356      -38.089314       -6.834629
 C         -13.064010      -39.245560       -6.983573
 C         -15.050459      -38.081348       -7.938014
 C         -13.886138      -40.574215       -6.901651
 C         -15.820705      -39.369038       -8.161788
 C         -14.895482      -40.613594       -8.074573
 H         -12.300541      -39.226662       -6.169261
 H         -12.465748      -39.271809       -7.925876
 H         -15.764062      -37.261093       -7.804900
 H         -14.587468      -37.818256       -8.870749
 H         -14.374614      -40.640423       -5.967872
 H         -13.224300      -41.430443       -6.955263
 H         -16.318710      -39.311886       -9.135862
 H         -16.645317      -39.424866       -7.439949
 H         -15.513715      -41.504807       -8.033583
 H         -14.310431      -40.644825       -8.979306
