20
 generated by VMD
 C         -23.575621      -54.841759      -14.881529
 N         -23.149715      -54.321312      -15.804576
 H         -20.543871      -54.803833      -15.045428
 H         -23.882521      -55.395222      -14.142559
 C         -19.624710      -55.236027      -14.744943
 C         -18.747877      -54.736588      -13.587036
 C         -19.033880      -56.513969      -15.341020
 C         -18.959408      -55.788326      -12.458663
 C         -18.901772      -57.532833      -14.279865
 C         -18.287220      -56.956543      -13.016187
 H         -19.125204      -53.755409      -13.314689
 H         -17.722502      -54.697372      -13.836884
 H         -19.643864      -56.917561      -16.187180
 H         -18.068207      -56.347763      -15.725718
 H         -20.026428      -56.022804      -12.359695
 H         -18.578339      -55.554207      -11.488314
 H         -18.282829      -58.361282      -14.662880
 H         -19.908051      -57.971142      -14.073790
 H         -18.294714      -57.769711      -12.242491
 H         -17.212370      -56.787518      -13.162723
