20
 generated by VMD
 C         -11.506424      -32.162354       -8.937729
 N         -12.250061      -32.645828       -9.616200
 H         -11.476275      -33.748440       -6.366944
 H         -12.359902      -34.269630       -4.942020
 C         -11.932659      -34.644787       -5.879281
 C         -10.866763      -35.691998       -5.519684
 C         -13.186433      -35.182835       -6.534507
 C         -11.467153      -36.782387       -4.579642
 C         -13.719365      -36.371063       -5.756701
 C         -12.691068      -37.375763       -5.271674
 H         -10.025659      -35.238075       -5.006285
 H         -10.579927      -36.250038       -6.445311
 H         -13.872224      -34.307816       -6.583402
 H         -13.025956      -35.442810       -7.574899
 H         -11.859392      -36.296818       -3.677173
 H         -10.747683      -37.568752       -4.396821
 H         -14.540826      -36.863056       -6.316309
 H         -14.110847      -35.945637       -4.858669
 H         -13.144678      -38.041363       -4.533011
 H         -12.368439      -38.043739       -6.153205
