20
 generated by VMD
 C         -20.165197      -61.811554      -17.704433
 N         -19.652491      -61.567493      -16.696062
 H         -21.929014      -65.051308      -16.418919
 H         -20.797533      -62.195213      -18.453667
 C         -22.857351      -65.126175      -17.013079
 C         -23.127474      -64.327827      -18.243450
 C         -24.031401      -65.191704      -16.052914
 C         -24.477575      -64.755730      -18.988325
 C         -25.298470      -65.764191      -16.775000
 C         -25.612774      -64.884010      -17.959616
 H         -22.318419      -64.342407      -18.916513
 H         -23.163763      -63.332012      -17.836546
 H         -23.752033      -65.889221      -15.211641
 H         -24.248486      -64.332092      -15.432089
 H         -24.501802      -65.673584      -19.589561
 H         -24.765570      -63.939865      -19.616074
 H         -26.220358      -65.669632      -16.089079
 H         -25.045546      -66.797134      -17.131916
 H         -26.635008      -65.137680      -18.318115
 H         -25.617071      -63.886745      -17.444105
