20
 generated by VMD
 C         -50.898773     -129.328140      -45.095356
 N         -50.946899     -130.061493      -44.241306
 H         -49.217148     -128.578964      -41.707844
 H         -50.756710     -128.699982      -45.929012
 C         -48.246185     -128.730820      -41.177422
 C         -47.815113     -130.092804      -40.936050
 C         -47.167301     -127.718277      -40.946777
 C         -46.443687     -130.503082      -41.562866
 C         -45.724937     -128.098709      -41.321205
 C         -45.333626     -129.539200      -40.885326
 H         -48.708473     -130.738617      -41.343624
 H         -47.826393     -130.229172      -39.894016
 H         -47.349865     -126.815521      -41.436134
 H         -47.225426     -127.561249      -39.784687
 H         -46.611809     -130.361496      -42.677872
 H         -46.149433     -131.491943      -41.129154
 H         -44.957417     -127.443741      -40.849342
 H         -45.668583     -127.941711      -42.450497
 H         -44.310154     -129.829361      -41.090984
 H         -45.411999     -129.725967      -39.760361
