20
 generated by VMD
 C         -11.249302      -38.415295       -7.587801
 N         -11.669995      -37.638218       -6.902514
 H         -12.626023      -41.857616       -8.951736
 H         -13.452010      -40.710911       -7.781740
 C         -13.598214      -41.348228       -8.711962
 C         -14.568974      -42.438995       -8.156967
 C         -14.240939      -40.588455       -9.846005
 C         -15.868764      -41.781055       -7.784276
 C         -15.700977      -40.137077       -9.693480
 C         -16.538322      -41.250828       -9.014038
 H         -14.034020      -43.078003       -7.382692
 H         -14.677827      -43.187733       -8.966990
 H         -13.527167      -39.770588      -10.155274
 H         -14.171857      -41.236755      -10.694773
 H         -15.800378      -40.989960       -7.018198
 H         -16.578079      -42.492020       -7.300280
 H         -16.203432      -39.904140      -10.617564
 H         -15.699402      -39.264946       -8.987659
 H         -17.506624      -40.807819       -8.667406
 H         -16.713655      -41.992863       -9.784256
