20
 generated by VMD
 C         -47.609280     -138.102386      -45.813507
 N         -47.214619     -137.939377      -46.879242
 H         -50.477581     -137.670624      -44.683216
 H         -47.958385     -138.483505      -44.841217
 C         -51.430622     -138.115753      -44.938316
 C         -51.424408     -138.876114      -46.205814
 C         -52.560455     -137.860764      -44.134060
 C         -52.591175     -139.791000      -46.401890
 C         -53.678982     -138.930069      -44.248592
 C         -53.844913     -139.280289      -45.737255
 H         -50.395004     -139.391541      -46.362125
 H         -51.548912     -138.168579      -46.997776
 H         -52.313900     -137.863800      -43.062538
 H         -53.004818     -136.950348      -44.510288
 H         -52.189911     -140.796936      -46.027374
 H         -52.920498     -139.803940      -47.469189
 H         -54.507828     -138.447861      -43.768585
 H         -53.259380     -139.799423      -43.792183
 H         -54.693954     -140.110245      -45.756348
 H         -54.258442     -138.332306      -46.217941
