20
 generated by VMD
 C         -49.726189     -127.420097      -39.721844
 N         -48.921204     -126.677444      -39.377544
 H         -47.161755     -126.519493      -41.571754
 H         -50.654308     -127.955704      -39.889408
 C         -46.338081     -125.860130      -41.156116
 C         -45.211575     -126.378197      -40.355373
 C         -46.784008     -124.371048      -41.209503
 C         -44.024277     -125.421188      -40.689346
 C         -45.517216     -123.586082      -41.476814
 C         -44.430504     -123.980194      -40.453213
 H         -44.887802     -127.418022      -40.685341
 H         -45.454384     -126.356171      -39.308720
 H         -47.503239     -124.021927      -41.952869
 H         -47.384224     -124.070190      -40.380322
 H         -43.882984     -125.602760      -41.751587
 H         -43.091019     -125.675980      -40.205711
 H         -45.616776     -122.450005      -41.526287
 H         -45.055538     -123.750061      -42.470390
 H         -43.517319     -123.384705      -40.687843
 H         -44.801487     -123.737183      -39.430443
