20
 generated by VMD
 C         -22.668949      -52.306751      -11.803508
 N         -22.608459      -52.626190      -10.730579
 H         -19.938322      -52.103073      -13.937719
 H         -23.045748      -52.142467      -12.862903
 C         -18.940641      -52.456059      -13.901976
 C         -17.968788      -51.818027      -14.792580
 C         -18.367945      -53.299480      -12.754934
 C         -16.524490      -52.301102      -14.627537
 C         -17.112202      -52.632671      -12.103729
 C         -16.091558      -52.079136      -13.118986
 H         -18.039234      -50.731846      -14.578488
 H         -18.247828      -51.989853      -15.831386
 H         -19.104498      -53.477516      -11.996477
 H         -18.114590      -54.260445      -13.167400
 H         -15.806904      -51.659901      -15.160480
 H         -16.348127      -53.365261      -14.895369
 H         -16.711987      -53.295444      -11.320830
 H         -17.457058      -51.651115      -11.673813
 H         -15.875395      -50.991318      -12.959285
 H         -15.155443      -52.644291      -12.883352
