20
 generated by VMD
 C         -29.782345      -89.429047      -25.215578
 N         -29.140427      -89.698280      -26.130308
 H         -32.085369      -91.177956      -26.926334
 H         -30.540403      -89.219170      -24.443642
 C         -32.890957      -90.771812      -27.550741
 C         -34.251385      -91.103813      -27.013733
 C         -32.728012      -89.494392      -28.402216
 C         -35.091957      -89.890526      -26.646158
 C         -33.450211      -88.379814      -27.754091
 C         -34.960346      -88.735718      -27.699224
 H         -34.315296      -91.781387      -26.178095
 H         -34.870628      -91.699272      -27.709068
 H         -31.638311      -89.413467      -28.542070
 H         -33.112442      -89.738365      -29.408405
 H         -34.802628      -89.487862      -25.615597
 H         -36.172672      -90.059372      -26.705837
 H         -33.248840      -87.513603      -28.415926
 H         -33.186691      -88.069801      -26.729956
 H         -35.569214      -87.841484      -27.414774
 H         -35.551620      -89.057487      -28.743521
