20
 generated by VMD
 C         -32.784283      -96.444801      -25.426527
 N         -32.927841      -96.011070      -24.354244
 H         -34.424675      -93.859467      -27.524168
 H         -32.538128      -96.853668      -26.361853
 C         -34.557957      -93.488358      -28.504942
 C         -35.914719      -93.536446      -29.031939
 C         -33.421677      -93.210670      -29.389299
 C         -36.298733      -92.483849      -30.022184
 C         -33.724270      -92.278717      -30.497793
 C         -35.100700      -92.415077      -31.107792
 H         -36.633453      -93.472305      -28.151924
 H         -36.182976      -94.443871      -29.564108
 H         -32.583450      -92.858055      -28.751480
 H         -33.236671      -94.205673      -29.822552
 H         -36.310356      -91.415131      -29.531404
 H         -37.348316      -92.658310      -30.307846
 H         -32.967232      -92.272156      -31.337429
 H         -33.580994      -91.278244      -30.137770
 H         -35.355568      -91.693420      -31.765429
 H         -35.134567      -93.307732      -31.744879
