20
 generated by VMD
 C         -26.786579      -71.806091      -17.540991
 N         -26.755297      -72.785019      -16.920996
 H         -24.460594      -69.685677      -18.664505
 H         -26.781008      -70.886787      -18.298605
 C         -24.751499      -69.992470      -19.650961
 C         -24.167496      -71.041847      -20.443361
 C         -25.664600      -69.081261      -20.448484
 C         -25.101995      -71.809311      -21.238844
 C         -26.743067      -69.957466      -21.215242
 C         -25.937742      -70.958084      -22.020926
 H         -23.680882      -71.796669      -19.703983
 H         -23.304462      -70.639847      -21.148491
 H         -26.074488      -68.272079      -19.749304
 H         -25.116470      -68.534157      -21.212990
 H         -25.626062      -72.552307      -20.658787
 H         -24.574574      -72.393890      -22.012068
 H         -27.349834      -69.281715      -21.855577
 H         -27.469128      -70.286606      -20.452635
 H         -26.652283      -71.662056      -22.462309
 H         -25.510397      -70.360237      -22.822624
