20
 generated by VMD
 C         -21.996988      -55.434044      -17.534388
 N         -21.157759      -55.837624      -18.320272
 H         -21.528566      -57.013535      -14.180195
 H         -22.700832      -55.267151      -16.753922
 C         -21.332159      -58.047359      -14.303583
 C         -21.383581      -58.824173      -13.018888
 C         -21.193687      -58.591366      -15.731153
 C         -20.950417      -60.274616      -13.189003
 C         -20.290894      -59.800934      -15.720137
 C         -19.830423      -60.315422      -14.333415
 H         -22.473648      -58.752594      -12.692908
 H         -20.770353      -58.350548      -12.197605
 H         -22.080620      -58.936440      -16.151060
 H         -20.860273      -57.796860      -16.410873
 H         -21.757635      -60.979527      -13.329124
 H         -20.524593      -60.606537      -12.254080
 H         -19.461927      -59.595741      -16.374098
 H         -20.726732      -60.625675      -16.286020
 H         -19.661631      -61.401409      -14.543877
 H         -18.870581      -59.893833      -14.012392
