20
 generated by VMD
 C          -3.410694      -19.788038        3.460946
 N          -3.840397      -18.828714        3.086908
 H          -5.401792      -19.907665        0.013702
 H          -6.217351      -21.220562       -0.937988
 C          -6.110564      -20.139189       -0.780315
 C          -5.619913      -19.452545       -2.122832
 C          -7.518670      -19.689234       -0.270258
 C          -6.797847      -19.505669       -3.165398
 C          -8.545417      -19.535931       -1.359543
 C          -8.022428      -18.833776       -2.590904
 H          -4.764197      -20.020573       -2.530012
 H          -5.306684      -18.472069       -1.875402
 H          -7.865102      -20.373158        0.550481
 H          -7.356373      -18.623295        0.147965
 H          -7.044214      -20.605419       -3.324142
 H          -6.470728      -19.046144       -4.093643
 H          -9.429820      -19.053125       -0.930058
 H          -8.859155      -20.539646       -1.689503
 H          -8.843257      -18.847815       -3.308519
 H          -7.790906      -17.814518       -2.349437
