20
 generated by VMD
 C         -57.809834     -164.363098      -56.678432
 N         -57.261154     -163.510803      -57.169132
 H         -60.274174     -164.185745      -53.984150
 H         -58.236050     -165.219955      -56.168621
 C         -60.997807     -164.841187      -54.546490
 C         -61.804268     -165.734940      -53.714931
 C         -61.261692     -164.400452      -55.874710
 C         -63.192650     -165.131943      -53.799580
 C         -62.722572     -163.931854      -55.937721
 C         -63.783119     -164.752228      -55.182514
 H         -61.422077     -165.686432      -52.657478
 H         -61.762547     -166.727463      -54.211174
 H         -60.667618     -163.606918      -56.319977
 H         -61.081627     -165.292542      -56.462044
 H         -63.334522     -164.223892      -53.170704
 H         -63.915066     -165.765259      -53.171219
 H         -63.008404     -163.886368      -56.966049
 H         -62.725803     -162.972275      -55.330097
 H         -64.744812     -164.136536      -54.917488
 H         -64.161888     -165.704483      -55.699791
