20
 generated by VMD
 C         -45.374676     -123.227852      -35.438759
 N         -45.843231     -124.245842      -35.268524
 H         -44.916096     -122.369812      -38.326431
 H         -44.760387     -122.396446      -35.466755
 C         -44.807884     -121.615196      -39.156937
 C         -43.352783     -121.404716      -39.561314
 C         -45.938797     -120.735703      -39.515518
 C         -43.382946     -120.906158      -41.093483
 C         -45.818493     -120.182755      -40.930321
 C         -44.397808     -119.859451      -41.334179
 H         -42.732155     -122.256531      -39.626987
 H         -42.967476     -120.567543      -38.893238
 H         -46.841972     -121.298981      -39.251923
 H         -45.940632     -119.823761      -38.846676
 H         -43.548725     -121.778404      -41.796772
 H         -42.430305     -120.360123      -41.157280
 H         -46.476532     -119.374069      -41.141716
 H         -46.183762     -120.936356      -41.696213
 H         -44.496002     -119.700981      -42.429962
 H         -44.094364     -118.883492      -41.035240
