20
 generated by VMD
 C         -13.700886      -42.958427       -6.036519
 N         -12.876185      -43.065731       -6.767963
 H         -14.692204      -44.963951       -8.762796
 H         -14.396235      -43.459023       -9.689040
 C         -15.113578      -44.271873       -9.602784
 C         -16.450825      -43.607185       -9.354628
 C         -15.219791      -45.034473      -10.868870
 C         -16.910034      -42.688381      -10.477468
 C         -15.840791      -44.188164      -12.053678
 C         -17.143667      -43.460770      -11.745174
 H         -16.374065      -42.971142       -8.491093
 H         -17.167368      -44.340034       -9.098604
 H         -14.266235      -45.493771      -11.176977
 H         -15.825942      -45.977844      -10.780782
 H         -16.148405      -41.937359      -10.654939
 H         -17.807833      -42.159447      -10.145969
 H         -15.973405      -44.855453      -12.952611
 H         -15.124413      -43.435642      -12.296714
 H         -17.364050      -42.806881      -12.652670
 H         -17.992504      -44.167934      -11.556623
