20
 generated by VMD
 C         -12.043034      -39.561527       -6.718596
 N         -10.949707      -39.358753       -6.838874
 H         -12.851091      -40.988304       -8.900316
 H         -14.216615      -39.917805       -8.740419
 C         -14.006057      -40.951477       -9.064831
 C         -14.677661      -41.883064       -8.003174
 C         -14.578007      -41.208107      -10.482813
 C         -16.165335      -41.672695       -8.088919
 C         -16.086164      -41.267418      -10.572708
 C         -16.670135      -42.181416       -9.432555
 H         -14.181191      -41.759464       -7.006858
 H         -14.423143      -42.931995       -8.199081
 H         -14.155896      -40.448574      -11.180311
 H         -14.147823      -42.107456      -10.858186
 H         -16.469141      -40.634380       -7.957190
 H         -16.700680      -42.120087       -7.199092
 H         -16.437126      -41.696434      -11.468801
 H         -16.571169      -40.240734      -10.392431
 H         -17.799047      -42.116592       -9.452005
 H         -16.302986      -43.198059       -9.701378
