20
 generated by VMD
 C         -44.216511     -121.793251      -35.898788
 N         -43.792019     -120.679390      -35.794563
 H         -44.860863     -122.599625      -39.418461
 H         -44.394485     -122.804314      -36.101635
 C         -44.824474     -121.476891      -39.629749
 C         -43.330410     -120.956184      -39.651543
 C         -45.912506     -120.629318      -39.043125
 C         -43.304985     -119.614281      -40.184700
 C         -45.739185     -119.217659      -39.476097
 C         -44.317303     -118.697250      -39.397652
 H         -42.670410     -121.712906      -40.230953
 H         -42.970192     -121.029411      -38.590584
 H         -46.915462     -120.962013      -39.339382
 H         -45.869881     -120.758080      -37.965919
 H         -43.560688     -119.657112      -41.242088
 H         -42.419170     -119.096275      -40.248325
 H         -46.319416     -118.532471      -38.997631
 H         -46.104084     -119.113487      -40.507095
 H         -44.320267     -117.626205      -39.679165
 H         -44.066246     -118.671646      -38.314049
