20
 generated by VMD
 C         -57.860886     -164.783813      -56.485603
 N         -57.252693     -164.052795      -57.209129
 H         -59.964882     -165.105637      -54.415840
 H         -58.514091     -165.429260      -55.892792
 C         -60.977829     -164.956360      -54.641323
 C         -61.928177     -165.823303      -53.804581
 C         -61.446941     -164.132034      -55.965351
 C         -63.390087     -165.574020      -54.086399
 C         -62.900906     -163.893051      -55.780926
 C         -63.742756     -165.167221      -55.553539
 H         -61.782604     -165.646790      -52.734604
 H         -61.638893     -166.870773      -53.871029
 H         -60.842079     -163.228027      -56.054558
 H         -61.095692     -164.824844      -56.738945
 H         -63.895145     -164.834854      -53.422108
 H         -63.931583     -166.497940      -53.922935
 H         -63.246181     -163.306778      -56.605019
 H         -63.046005     -163.164001      -54.952217
 H         -64.793320     -164.869156      -55.569103
 H         -63.647789     -165.907776      -56.361679
