20
 generated by VMD
 C         -13.393368      -45.098816       -5.990439
 N         -14.342607      -44.583370       -6.305902
 H         -14.951139      -44.430336       -9.063717
 H         -14.355414      -43.968357      -10.615219
 C         -15.301489      -44.330181      -10.091515
 C         -16.473038      -43.331375      -10.185349
 C         -15.648870      -45.616196      -10.725250
 C         -16.977850      -43.115509      -11.598063
 C         -16.205637      -45.498081      -12.148580
 C         -17.269304      -44.436520      -12.304424
 H         -16.283415      -42.336437       -9.790924
 H         -17.264229      -43.734406       -9.476464
 H         -14.813061      -46.354588      -10.568101
 H         -16.447598      -46.139759      -10.093510
 H         -16.267139      -42.543839      -12.172859
 H         -17.921179      -42.562508      -11.614127
 H         -16.653841      -46.435055      -12.421252
 H         -15.338090      -45.355392      -12.900372
 H         -17.481546      -44.339695      -13.360829
 H         -18.256786      -44.739742      -11.844899
