20
 generated by VMD
 C         -78.557602     -209.220184      -77.130409
 N         -77.854927     -209.722977      -77.874146
 H         -79.253784     -211.574951      -74.071800
 H         -79.224785     -208.798279      -76.494301
 C         -79.339470     -212.070435      -73.063988
 C         -77.989967     -212.336304      -72.437508
 C         -80.441849     -212.986465      -72.804016
 C         -78.322029     -212.549683      -70.910805
 C         -80.700577     -213.364731      -71.379555
 C         -79.339142     -213.662598      -70.763771
 H         -77.309456     -211.457306      -72.649872
 H         -77.545784     -213.315002      -72.749031
 H         -81.332520     -212.630814      -73.261024
 H         -80.318436     -213.923676      -73.419434
 H         -78.605972     -211.593674      -70.434525
 H         -77.443039     -212.929886      -70.461090
 H         -81.329117     -214.343109      -71.397446
 H         -81.276855     -212.634750      -70.931541
 H         -79.518173     -214.004135      -69.733238
 H         -78.965820     -214.511993      -71.260948
