20
 generated by VMD
 C         -38.295788     -110.443497      -36.131348
 N         -37.776474     -109.405502      -36.307037
 H         -40.059494     -113.502686      -35.859295
 H         -38.683525     -111.414268      -36.219036
 C         -41.047813     -113.151405      -35.930618
 C         -42.239723     -113.799034      -36.667286
 C         -41.459000     -112.002869      -35.079914
 C         -43.411087     -114.182816      -35.755512
 C         -42.754322     -112.480865      -34.108158
 C         -43.832691     -113.015305      -34.975872
 H         -41.822994     -114.726295      -37.084461
 H         -42.482311     -113.122765      -37.440559
 H         -40.759277     -111.697968      -34.309959
 H         -41.847469     -111.056488      -35.555748
 H         -43.266514     -115.076904      -35.272396
 H         -44.315830     -114.495743      -36.336136
 H         -43.002972     -111.519325      -33.528492
 H         -42.434155     -113.292007      -33.387779
 H         -44.589806     -113.185829      -34.321613
 H         -44.141899     -112.188293      -35.669823
