20
 generated by VMD
 C         -69.513046     -180.940353      -62.207489
 N         -70.223206     -180.051102      -62.345882
 H         -66.884613     -181.538528      -60.569313
 H         -68.804688     -181.707550      -62.173553
 C         -66.444687     -180.516785      -60.613564
 C         -64.921021     -180.499878      -60.408340
 C         -67.215401     -179.390167      -60.043266
 C         -64.471947     -179.157425      -61.105732
 C         -66.696404     -178.097260      -60.676510
 C         -65.162170     -177.908096      -60.680920
 H         -64.482071     -181.285889      -61.018677
 H         -64.745834     -180.473206      -59.368896
 H         -68.334404     -179.519791      -60.402229
 H         -67.266060     -179.332779      -58.991623
 H         -64.391418     -179.212997      -62.217880
 H         -63.400314     -179.093567      -60.918289
 H         -67.031708     -177.209274      -60.095989
 H         -66.979218     -177.959656      -61.767193
 H         -64.895691     -177.039780      -61.156757
 H         -64.991600     -177.657013      -59.695721
