20
 generated by VMD
 C         -59.911945     -157.588882      -56.080498
 N         -60.343945     -157.517273      -57.193764
 H         -60.109138     -157.367905      -52.307499
 H         -59.601540     -157.485794      -55.051479
 C         -59.223431     -157.890564      -52.654533
 C         -57.876625     -157.525162      -52.077808
 C         -59.427086     -159.408600      -52.934116
 C         -57.536022     -158.402985      -50.930290
 C         -59.087879     -160.331177      -51.779648
 C         -57.748146     -159.840286      -51.268345
 H         -57.922684     -156.394241      -51.894852
 H         -57.204365     -157.696106      -52.941162
 H         -60.435715     -159.680252      -53.304287
 H         -58.837818     -159.739395      -53.723122
 H         -58.218704     -158.034637      -50.142178
 H         -56.402035     -158.239853      -50.681728
 H         -58.722946     -161.327286      -52.103836
 H         -59.953220     -160.432495      -51.067657
 H         -57.498360     -160.424454      -50.337086
 H         -56.912834     -160.145432      -51.919388
