20
 generated by VMD
 C         -12.595371      -30.255426       -8.092255
 N         -13.156255      -30.530840       -7.165589
 H         -11.249589      -30.369806       -5.257759
 H         -10.829362      -30.742596       -3.723403
 C         -10.929324      -31.224047       -4.713481
 C          -9.540605      -31.734554       -5.354988
 C         -11.959563      -32.318214       -4.576777
 C          -9.036448      -32.998528       -4.659040
 C         -11.440030      -33.548233       -3.854525
 C         -10.112033      -34.053692       -4.518168
 H          -8.793499      -30.936453       -5.261272
 H          -9.715179      -31.880873       -6.427044
 H         -12.836573      -31.917408       -4.072158
 H         -12.346867      -32.640823       -5.552675
 H          -8.597292      -32.824913       -3.659545
 H          -8.249469      -33.496922       -5.265213
 H         -12.153529      -34.422005       -3.927122
 H         -11.331656      -33.340668       -2.790349
 H          -9.743166      -34.914345       -3.921561
 H         -10.266100      -34.583305       -5.453657
