20
 generated by VMD
 C         -68.116386     -188.295242      -66.620613
 N         -68.817764     -188.441818      -67.526825
 H         -68.356888     -187.158264      -63.822975
 H         -67.441956     -188.136047      -65.731560
 C         -69.301704     -187.584061      -63.529659
 C         -69.393433     -189.013168      -62.982922
 C         -70.468475     -186.598877      -63.537804
 C         -70.664207     -189.567886      -63.341663
 C         -71.817001     -187.298187      -63.781029
 C         -71.795830     -188.668228      -62.964996
 H         -69.316833     -188.902084      -61.863361
 H         -68.567368     -189.675201      -63.273438
 H         -70.479546     -186.109344      -62.528149
 H         -70.310562     -185.909683      -64.353531
 H         -70.789047     -190.494995      -62.797710
 H         -70.701248     -189.845139      -64.388794
 H         -71.883003     -187.506989      -64.881317
 H         -72.654434     -186.715317      -63.355350
 H         -71.875916     -188.453735      -61.854713
 H         -72.768509     -189.046387      -63.418121
