20
 generated by VMD
 C         -31.857826      -76.233673      -24.462763
 N         -31.572544      -76.690422      -25.478222
 H         -29.568333      -77.600777      -22.593729
 H         -32.528950      -75.929283      -23.661242
 C         -28.591978      -77.813133      -22.210379
 C         -27.607214      -78.067032      -23.303032
 C         -28.455643      -78.531708      -20.871258
 C         -26.124208      -78.129158      -22.767475
 C         -26.994913      -78.539886      -20.415682
 C         -25.951984      -78.923439      -21.446526
 H         -27.629442      -77.206154      -23.990267
 H         -27.993654      -78.939491      -23.847649
 H         -28.927055      -77.820900      -20.109339
 H         -28.921608      -79.493729      -21.012182
 H         -25.776968      -77.118263      -22.677269
 H         -25.390976      -78.510674      -23.498909
 H         -26.839693      -79.226624      -19.573729
 H         -26.807995      -77.524475      -19.980433
 H         -24.973776      -78.798744      -20.910032
 H         -26.119095      -79.958809      -21.689487
