20
 generated by VMD
 C         -65.310562     -177.137146      -56.229275
 N         -65.930031     -177.252625      -55.269768
 H         -64.286842     -174.966263      -59.295620
 H         -64.771523     -176.934235      -57.167919
 C         -64.322594     -173.890366      -59.453808
 C         -65.323502     -173.024323      -58.750179
 C         -63.584877     -173.396515      -60.676712
 C         -64.713737     -171.516876      -58.698235
 C         -63.110920     -171.966049      -60.669170
 C         -64.208740     -170.969925      -60.072052
 H         -65.545731     -173.217010      -57.723675
 H         -66.359085     -172.931671      -59.202274
 H         -62.682556     -173.996674      -60.659260
 H         -64.282288     -173.575317      -61.390873
 H         -63.852539     -171.586319      -57.925804
 H         -65.471832     -170.774338      -58.303757
 H         -62.984730     -171.772278      -61.786007
 H         -62.140350     -171.737976      -60.305099
 H         -63.722446     -169.995331      -59.931023
 H         -65.009186     -170.798279      -60.742889
