20
 generated by VMD
 C         -79.711487     -207.008957      -73.649559
 N         -80.207718     -205.989624      -73.727921
 H         -78.141197     -205.189255      -70.669662
 H         -79.181183     -207.946594      -73.490173
 C         -77.113327     -205.330719      -70.273659
 C         -76.028625     -204.459991      -70.841797
 C         -76.796082     -206.619904      -69.667900
 C         -74.658165     -204.664337      -70.264938
 C         -75.427223     -206.797028      -69.136070
 C         -74.402397     -206.182953      -70.107307
 H         -76.331993     -203.460403      -70.992599
 H         -75.993484     -204.972061      -71.848793
 H         -77.555756     -207.017883      -69.026962
 H         -76.709686     -207.388535      -70.428459
 H         -74.640373     -204.087402      -69.318306
 H         -74.083313     -204.107208      -71.039810
 H         -75.375191     -207.940933      -68.997475
 H         -75.216469     -206.374893      -68.194000
 H         -73.408112     -206.382904      -69.720352
 H         -74.492378     -206.627914      -71.131897
