20
 generated by VMD
 C         -51.157223     -130.812927      -46.197845
 N         -50.367893     -130.199020      -46.866566
 H         -48.233994     -132.248779      -44.484566
 H         -51.665413     -131.391449      -45.448601
 C         -48.057701     -132.421021      -43.383579
 C         -48.569744     -133.780731      -42.991005
 C         -48.089859     -131.181641      -42.425144
 C         -48.259090     -134.005692      -41.520763
 C         -47.892380     -131.578583      -40.985100
 C         -48.616940     -132.846207      -40.617680
 H         -48.182671     -134.565979      -43.640320
 H         -49.675655     -133.757156      -43.189381
 H         -47.389351     -130.276779      -42.603775
 H         -49.009190     -130.641357      -42.349152
 H         -47.163769     -134.220428      -41.477619
 H         -48.707314     -134.956177      -41.133240
 H         -48.186024     -130.876480      -40.317318
 H         -46.794567     -131.717682      -40.834137
 H         -48.365330     -133.240753      -39.612190
 H         -49.646496     -132.754593      -40.726341
