20
 generated by VMD
 C         -11.362638      -38.318001       -7.703459
 N         -11.562610      -37.584885       -6.866352
 H         -12.676682      -41.783463       -9.033517
 H         -13.344995      -40.673141       -7.889997
 C         -13.608715      -41.354488       -8.633557
 C         -14.550838      -42.439991       -8.196475
 C         -14.238090      -40.560696       -9.814971
 C         -15.871559      -41.827118       -7.767995
 C         -15.657456      -40.114761       -9.611414
 C         -16.505367      -41.167263       -9.002851
 H         -14.191743      -42.914761       -7.290637
 H         -14.752539      -43.187553       -8.983569
 H         -13.657301      -39.620979       -9.919176
 H         -14.182444      -41.169575      -10.766863
 H         -15.683264      -41.108707       -6.979337
 H         -16.497499      -42.649399       -7.351892
 H         -15.985040      -39.807964      -10.572339
 H         -15.740322      -39.148788       -9.037874
 H         -17.475838      -40.796352       -8.799483
 H         -16.696249      -41.980320       -9.696628
