20
 generated by VMD
 C         -40.440865     -100.982635      -32.357487
 N         -41.205982     -100.892059      -31.516371
 H         -38.274078     -103.291664      -32.127697
 H         -39.959740     -101.024170      -33.273224
 C         -37.266693     -102.854156      -32.017696
 C         -36.165215     -102.495827      -32.946926
 C         -37.189510     -102.464340      -30.427713
 C         -35.256592     -101.334816      -32.387955
 C         -36.547394     -101.098289      -30.223701
 C         -35.090714     -101.263603      -30.829016
 H         -36.576305     -102.103760      -33.894848
 H         -35.536804     -103.354332      -33.141285
 H         -38.196869     -102.703476      -29.987251
 H         -36.503643     -103.259308      -29.997669
 H         -35.704655     -100.406281      -32.617073
 H         -34.287201     -101.220558      -32.737370
 H         -36.462429     -100.922874      -29.150467
 H         -37.000069     -100.272362      -30.721636
 H         -34.368549     -100.424576      -30.636286
 H         -34.502499     -102.075432      -30.429176
