20
 generated by VMD
 C          -2.629843      -16.802872        2.819508
 N          -2.022835      -16.970776        1.894883
 H          -4.687431      -16.011877        0.400627
 H          -4.343473      -17.229015       -0.800644
 C          -5.172904      -16.800240       -0.179534
 C          -6.266724      -16.194939       -1.021998
 C          -5.799160      -17.776814        0.881955
 C          -7.245775      -17.188255       -1.563807
 C          -6.588258      -18.908045        0.182610
 C          -7.784981      -18.180508       -0.544998
 H          -5.808529      -15.687878       -1.888652
 H          -6.822065      -15.431168       -0.444110
 H          -4.937070      -18.223778        1.354798
 H          -6.404584      -17.140696        1.475061
 H          -6.655715      -17.711510       -2.366116
 H          -8.069441      -16.641603       -2.101172
 H          -6.952679      -19.690674        0.826679
 H          -5.981871      -19.331509       -0.639039
 H          -8.537643      -18.866091       -0.905109
 H          -8.304652      -17.616861        0.219223
