20
 generated by VMD
 C         -40.862228     -103.958427      -36.992630
 N         -40.933296     -104.871239      -36.291985
 H         -39.668083     -105.379051      -33.928738
 H         -40.614304     -103.178856      -37.695187
 C         -39.193199     -106.321503      -33.448769
 C         -37.882309     -106.083046      -32.700394
 C         -39.691292     -107.681122      -33.446121
 C         -37.649242     -106.832504      -31.326004
 C         -39.528149     -108.297478      -32.038380
 C         -38.103264     -108.296425      -31.432604
 H         -37.719048     -104.954460      -32.570484
 H         -36.994606     -106.453392      -33.262264
 H         -40.731365     -107.715225      -33.841526
 H         -39.242840     -108.411469      -34.012264
 H         -38.180714     -106.173088      -30.653658
 H         -36.554527     -106.752876      -31.155180
 H         -39.875271     -109.392960      -31.976988
 H         -40.188522     -107.908066      -31.280300
 H         -38.131695     -108.795815      -30.505178
 H         -37.333378     -108.874634      -32.060272
