20
 generated by VMD
 C         -30.431580      -74.516914      -21.041224
 N         -30.912724      -75.478859      -20.583225
 H         -27.259544      -74.749123      -19.360350
 H         -29.912830      -73.784294      -21.520517
 C         -26.836901      -74.595520      -20.335423
 C         -26.466772      -75.824265      -21.202282
 C         -25.966982      -73.346214      -20.389463
 C         -25.999357      -75.422653      -22.648987
 C         -25.555386      -73.021156      -21.798054
 C         -24.989115      -74.176552      -22.606092
 H         -27.394258      -76.555145      -21.307249
 H         -25.759193      -76.524094      -20.595127
 H         -26.420223      -72.352730      -20.067387
 H         -25.076984      -73.494843      -19.680271
 H         -26.841345      -75.197121      -23.302238
 H         -25.470257      -76.292824      -23.043663
 H         -24.728237      -72.347641      -21.870605
 H         -26.337233      -72.557945      -22.406565
 H         -24.777819      -73.970314      -23.681465
 H         -24.093578      -74.390541      -22.020138
