20
 generated by VMD
 C         -60.823086     -154.461273      -51.211010
 N         -61.174973     -154.177780      -52.322132
 H         -57.308224     -154.070267      -52.906292
 H         -60.692329     -154.752991      -50.142521
 C         -56.701054     -153.629837      -52.117062
 C         -57.060440     -153.855225      -50.649128
 C         -55.525635     -152.770187      -52.395691
 C         -55.894325     -154.306351      -49.772522
 C         -54.415150     -153.013123      -51.486214
 C         -54.870441     -153.241974      -50.016785
 H         -57.847607     -154.581528      -50.704300
 H         -57.556835     -152.963089      -50.261215
 H         -55.145115     -152.887634      -53.478775
 H         -55.858990     -151.729202      -52.367912
 H         -55.500984     -155.359634      -50.075893
 H         -55.921261     -154.377258      -48.623459
 H         -53.550453     -152.359818      -51.374092
 H         -54.111099     -153.986115      -51.874458
 H         -54.051895     -153.535049      -49.387051
 H         -55.020306     -152.204010      -49.577915
