20
 generated by VMD
 C          -9.798047      -24.750334        0.543787
 N         -10.482978      -25.221846       -0.209978
 H          -6.448820      -24.238825       -0.762494
 H          -8.176290      -23.912924       -1.206507
 C          -7.127620      -24.062935       -1.575548
 C          -7.135885      -25.269760       -2.558365
 C          -6.683829      -22.766054       -2.356224
 C          -8.078497      -24.964012       -3.788459
 C          -7.612782      -22.452374       -3.521607
 C          -7.690926      -23.603954       -4.481404
 H          -7.553836      -26.058229       -1.952004
 H          -6.123530      -25.609873       -2.974404
 H          -6.722526      -21.879213       -1.691381
 H          -5.643287      -22.873678       -2.663524
 H          -9.082612      -24.861517       -3.393520
 H          -8.009089      -25.761967       -4.472056
 H          -7.217353      -21.541365       -4.027349
 H          -8.602007      -22.159338       -3.132215
 H          -8.443055      -23.343731       -5.288486
 H          -6.812636      -23.727152       -5.113305
