20
 generated by VMD
 C         -13.961366      -43.287792       -6.526595
 N         -13.092000      -43.656528       -5.941286
 H         -15.091517      -45.207645       -8.939309
 H         -14.197209      -43.984108       -9.853714
 C         -15.173245      -44.539387       -9.759992
 C         -16.376211      -43.630253       -9.621469
 C         -15.414661      -45.359272      -11.045032
 C         -16.822861      -42.776642      -10.793724
 C         -16.046690      -44.636082      -12.242786
 C         -17.241455      -43.711033      -11.909897
 H         -16.224136      -43.021069       -8.761280
 H         -17.261942      -44.190796       -9.293437
 H         -14.474067      -45.743759      -11.364584
 H         -16.024311      -46.148602      -10.727592
 H         -16.056843      -42.044563      -11.140754
 H         -17.692776      -42.172428      -10.477889
 H         -16.395805      -45.228222      -13.026319
 H         -15.175662      -44.033695      -12.634088
 H         -17.503807      -43.133190      -12.802247
 H         -18.121527      -44.337246      -11.651479
