20
 generated by VMD
 C         -14.669421      -45.467113       -6.409566
 N         -14.534772      -46.295441       -7.126606
 H         -15.082904      -44.092987       -9.098632
 H         -14.467514      -44.250854      -10.691319
 C         -15.434214      -44.361679      -10.121821
 C         -16.459230      -43.286011      -10.699420
 C         -15.980566      -45.766220      -10.263814
 C         -16.827255      -43.649082      -12.117041
 C         -16.230244      -46.109623      -11.752673
 C         -17.203735      -45.105770      -12.376777
 H         -15.921858      -42.352894      -10.694678
 H         -17.303034      -43.073017      -10.028808
 H         -15.247958      -46.400066       -9.725918
 H         -16.902925      -45.959137       -9.724146
 H         -15.933911      -43.532578      -12.732142
 H         -17.603439      -43.011314      -12.554284
 H         -16.571642      -47.140041      -11.879697
 H         -15.275293      -45.955822      -12.295798
 H         -17.204226      -45.311546      -13.488284
 H         -18.253260      -45.188530      -11.971463
