20
 generated by VMD
 C         -30.527794      -93.823044      -25.331236
 N         -29.410511      -93.717079      -25.116423
 H         -33.719078      -92.143547      -26.653059
 H         -31.590738      -93.979042      -25.658873
 C         -34.235615      -91.846664      -27.563026
 C         -35.673584      -92.263901      -27.823557
 C         -33.381676      -91.335617      -28.655428
 C         -36.427296      -91.407616      -28.922678
 C         -34.116425      -90.392014      -29.592945
 C         -35.483109      -91.041756      -30.112347
 H         -36.275024      -92.022224      -26.895529
 H         -35.780830      -93.399727      -27.985399
 H         -32.660931      -90.672913      -28.148022
 H         -32.927032      -92.170921      -29.250862
 H         -36.998428      -90.575706      -28.501513
 H         -37.147930      -92.180450      -29.361734
 H         -33.645493      -90.218102      -30.565596
 H         -34.333763      -89.478790      -29.097019
 H         -36.087112      -90.447937      -30.862768
 H         -35.185398      -92.056458      -30.603685
