20
 generated by VMD
 C         -20.895374      -52.249775       -9.602985
 N         -21.300407      -52.259750      -10.711068
 H         -19.378263      -49.755203      -11.857471
 H         -20.516502      -52.507046       -8.475842
 C         -18.320723      -49.951118      -12.144774
 C         -17.724293      -51.255127      -12.508004
 C         -17.232304      -48.878799      -12.194983
 C         -16.773764      -51.369061      -13.716726
 C         -16.599850      -48.792366      -13.548811
 C         -15.871350      -50.101509      -13.843079
 H         -18.587795      -51.935909      -12.697986
 H         -17.217451      -51.629959      -11.662423
 H         -17.630491      -47.928173      -11.854579
 H         -16.493284      -49.101139      -11.396998
 H         -17.351002      -51.542423      -14.651337
 H         -16.084385      -52.228909      -13.534786
 H         -15.955403      -47.956715      -13.661097
 H         -17.467464      -48.702961      -14.226393
 H         -15.329330      -49.980118      -14.832026
 H         -15.018723      -50.185608      -13.099610
