20
 generated by VMD
 C         -31.042410      -74.840736      -22.329802
 N         -31.236799      -75.817917      -21.699778
 H         -28.527704      -77.127541      -20.810455
 H         -31.063358      -73.735100      -22.436726
 C         -27.698675      -76.634712      -21.380619
 C         -26.730755      -77.483109      -22.033754
 C         -27.208668      -75.408318      -20.619894
 C         -25.803377      -76.635956      -22.904591
 C         -26.246119      -74.573143      -21.536829
 C         -25.185640      -75.505920      -22.213705
 H         -27.157440      -78.317734      -22.678076
 H         -26.112133      -77.922806      -21.248440
 H         -27.982355      -74.825455      -20.345282
 H         -26.701939      -75.692528      -19.699009
 H         -26.177174      -76.262672      -23.870882
 H         -25.015625      -77.375832      -23.172453
 H         -25.586349      -73.952187      -20.908112
 H         -26.766882      -74.036301      -22.341990
 H         -24.606203      -75.008278      -23.015026
 H         -24.532602      -75.833206      -21.432268
