20
 generated by VMD
 C         -49.573925     -133.081360      -47.178398
 N         -49.526016     -131.905884      -46.984211
 H         -47.650318     -134.456055      -44.100849
 H         -49.423153     -134.123016      -47.072857
 C         -48.641399     -134.705902      -43.647594
 C         -49.230610     -135.995071      -44.035736
 C         -49.605667     -133.615509      -43.118153
 C         -49.989418     -136.567078      -42.803413
 C         -50.419403     -134.237946      -41.924698
 C         -51.043068     -135.575394      -42.330158
 H         -48.413483     -136.704147      -44.242512
 H         -49.850487     -135.941803      -44.917324
 H         -49.257866     -132.632645      -42.827171
 H         -50.295406     -133.482712      -43.912178
 H         -49.246567     -136.823532      -41.991711
 H         -50.377090     -137.645752      -43.077419
 H         -51.241966     -133.488205      -41.606373
 H         -49.721878     -134.348160      -41.006184
 H         -51.463169     -135.993454      -41.373974
 H         -51.780659     -135.279739      -43.212002
