20
 generated by VMD
 C         -18.311340      -49.106464       -7.750759
 N         -19.160357      -49.812946       -7.896148
 H         -16.161011      -47.367371      -10.067569
 H         -16.785954      -48.807224      -10.695090
 C         -16.487549      -47.838490      -10.993574
 C         -15.272614      -47.962997      -11.887879
 C         -17.647968      -47.139206      -11.632082
 C         -15.511500      -48.142017      -13.376787
 C         -17.991789      -47.816380      -12.985989
 C         -16.815689      -47.469814      -13.920463
 H         -14.549820      -48.628124      -11.437304
 H         -14.680276      -47.035011      -11.917285
 H         -18.478275      -47.197979      -10.896759
 H         -17.428267      -46.066261      -11.792606
 H         -15.680924      -49.207020      -13.524060
 H         -14.594455      -47.798512      -13.869718
 H         -18.940905      -47.369884      -13.377133
 H         -18.217026      -48.882183      -12.776058
 H         -17.029480      -47.787670      -14.907648
 H         -16.666862      -46.432934      -13.964393
