20
 generated by VMD
 C         -38.471554     -111.462746      -36.206928
 N         -38.392357     -110.583130      -36.995117
 H         -40.271599     -114.250832      -35.008804
 H         -38.590141     -112.028069      -35.308853
 C         -41.368183     -114.292908      -35.145607
 C         -41.902248     -114.507927      -36.597256
 C         -42.193958     -113.344177      -34.252277
 C         -43.320786     -114.208023      -36.907063
 C         -43.696529     -113.181229      -34.724613
 C         -43.753124     -112.861427      -36.219460
 H         -41.705067     -115.554695      -36.954796
 H         -41.246796     -113.797684      -37.220650
 H         -41.929943     -113.622398      -33.210938
 H         -41.724842     -112.352158      -34.312550
 H         -44.150158     -114.947441      -36.765369
 H         -43.363670     -114.010712      -37.993721
 H         -44.038689     -112.349403      -34.259369
 H         -44.257698     -113.990799      -34.413723
 H         -44.781773     -112.604362      -36.734661
 H         -43.057068     -112.095360      -36.598530
