20
 generated by VMD
 C         -61.678082     -154.570740      -53.953156
 N         -62.170925     -155.571976      -53.554314
 H         -58.225864     -154.802292      -52.275192
 H         -61.259499     -153.618317      -54.291939
 C         -57.270142     -154.750458      -51.741089
 C         -57.268501     -154.350861      -50.271976
 C         -55.892189     -154.602829      -52.422050
 C         -56.018814     -154.708969      -49.458858
 C         -54.717556     -155.008667      -51.526638
 C         -54.697292     -154.379822      -50.235172
 H         -58.264725     -154.839722      -49.901222
 H         -57.405682     -153.303421      -49.972923
 H         -55.965931     -155.322800      -53.246349
 H         -55.688286     -153.612411      -52.826351
 H         -55.870434     -155.746262      -49.284702
 H         -55.951794     -154.241608      -48.434444
 H         -53.803486     -154.608170      -52.092190
 H         -54.562351     -156.059982      -51.377258
 H         -53.695053     -154.494980      -49.685184
 H         -54.691502     -153.315567      -50.362438
