20
 generated by VMD
 C         -70.308075     -182.756866      -65.816322
 N         -71.053642     -183.597687      -65.612846
 H         -67.732712     -182.082932      -63.093117
 H         -69.676422     -181.955566      -66.024918
 C         -67.257973     -182.024490      -62.100060
 C         -67.627777     -183.102463      -61.076443
 C         -67.039848     -180.560638      -61.588924
 C         -66.681786     -182.969727      -59.988239
 C         -65.982124     -180.610718      -60.501041
 C         -66.432449     -181.581528      -59.431259
 H         -67.696510     -184.006119      -61.558609
 H         -68.637054     -183.086823      -60.666790
 H         -66.759880     -179.817734      -62.310219
 H         -68.004318     -180.180466      -61.089661
 H         -65.625206     -183.289749      -60.186073
 H         -67.091957     -183.708435      -59.104996
 H         -65.933891     -179.562103      -60.169315
 H         -64.963486     -180.907181      -60.769070
 H         -65.574997     -181.516998      -58.741211
 H         -67.341362     -181.044418      -59.025360
