20
 generated by VMD
 C         -54.206417     -148.083313      -45.423653
 N         -54.532410     -148.190781      -44.310394
 H         -54.600368     -147.927933      -48.703285
 H         -54.082607     -148.025314      -46.527405
 C         -54.269257     -146.914398      -48.906017
 C         -53.311302     -146.671051      -49.986229
 C         -55.056442     -145.839371      -48.457573
 C         -53.374710     -145.423660      -50.851440
 C         -55.139099     -144.568649      -49.253590
 C         -53.764305     -144.355148      -49.871964
 H         -53.221512     -147.598999      -50.559170
 H         -52.246990     -146.627457      -49.620457
 H         -56.039715     -146.199417      -48.364803
 H         -54.770851     -145.577347      -47.446613
 H         -54.198219     -145.527939      -51.611584
 H         -52.446487     -145.174759      -51.324261
 H         -55.434818     -143.664581      -48.574356
 H         -55.856277     -144.648773      -50.009586
 H         -53.806190     -143.448776      -50.478069
 H         -53.133472     -144.206284      -48.988640
