20
 generated by VMD
 C         -19.279924      -61.492619      -16.145920
 N         -20.034464      -60.877159      -16.788620
 H         -21.964142      -62.963238      -18.010149
 H         -18.671593      -61.920414      -15.447206
 C         -22.795446      -63.585587      -17.748686
 C         -23.949265      -63.502846      -18.729362
 C         -23.085707      -63.440868      -16.237328
 C         -24.749550      -64.746826      -18.459612
 C         -23.928555      -64.696503      -16.056679
 C         -25.098955      -64.886215      -16.954062
 H         -23.702269      -63.371342      -19.836905
 H         -24.599106      -62.638889      -18.440714
 H         -22.006334      -63.453835      -15.775933
 H         -23.636902      -62.521896      -16.016586
 H         -24.378817      -65.732063      -18.758331
 H         -25.790642      -64.696320      -18.975847
 H         -24.265841      -64.801743      -15.021333
 H         -23.204605      -65.475548      -16.230955
 H         -25.832708      -65.719254      -16.845573
 H         -25.807400      -64.091621      -16.706064
