20
 generated by VMD
 C         -63.836334     -174.982025      -55.936283
 N         -62.938492     -175.367126      -56.517139
 H         -66.245399     -173.449341      -58.715450
 H         -64.751297     -174.705902      -55.419102
 C         -65.530182     -172.718369      -58.941849
 C         -65.666550     -171.352753      -58.278786
 C         -64.472672     -173.099411      -59.945904
 C         -64.364677     -170.592529      -58.193069
 C         -63.127235     -172.351501      -59.711311
 C         -63.530937     -170.791443      -59.462246
 H         -66.066124     -171.657669      -57.282372
 H         -66.547897     -170.755798      -58.733944
 H         -64.294167     -174.182617      -60.110394
 H         -64.826859     -172.798370      -60.982246
 H         -63.830307     -170.926819      -57.217216
 H         -64.641327     -169.492081      -58.023567
 H         -62.491497     -172.550491      -60.567444
 H         -62.702610     -172.679749      -58.786587
 H         -62.573845     -170.206467      -59.397152
 H         -64.108681     -170.520004      -60.366646
