20
 generated by VMD
 C         -22.759924      -52.362484      -12.042863
 N         -23.058443      -52.540462      -10.871215
 H         -20.004942      -53.005016      -14.074007
 H         -22.868460      -52.386600      -13.026894
 C         -18.898289      -52.752056      -13.871799
 C         -18.041424      -51.870007      -14.742442
 C         -18.265106      -53.711964      -12.928353
 C         -16.578623      -52.354412      -14.646424
 C         -17.012554      -53.170460      -12.206636
 C         -16.244642      -52.230804      -13.096499
 H         -18.096630      -50.755917      -14.467666
 H         -18.430716      -52.026672      -15.768167
 H         -19.000317      -54.090744      -12.245122
 H         -17.950165      -54.578327      -13.536318
 H         -15.912024      -51.655720      -15.101927
 H         -16.353403      -53.358429      -14.960390
 H         -16.276556      -54.024323      -11.904900
 H         -17.404081      -52.629391      -11.375355
 H         -16.584988      -51.210392      -12.757468
 H         -15.159471      -52.238163      -12.893769
