20
 generated by VMD
 C          -3.400625      -17.395798        2.317673
 N          -3.237302      -18.360493        1.779185
 H          -5.398924      -20.284946        0.693730
 H          -5.801062      -20.705154       -0.951807
 C          -5.994648      -19.960102       -0.184484
 C          -5.417239      -18.591755       -0.785753
 C          -7.515963      -19.795296        0.095985
 C          -6.176894      -18.157156       -2.011384
 C          -8.282395      -19.435213       -1.208208
 C          -7.704719      -18.093319       -1.746610
 H          -4.332640      -18.685287       -0.961474
 H          -5.614617      -17.842451        0.040428
 H          -7.959875      -20.698809        0.443438
 H          -7.604592      -18.914730        0.783122
 H          -5.982903      -18.809626       -2.807743
 H          -5.893287      -17.126490       -2.247141
 H          -9.338411      -19.345476       -0.995109
 H          -8.124653      -20.203020       -1.948474
 H          -8.179668      -17.908453       -2.719671
 H          -7.909843      -17.249306       -1.041585
