20
 generated by VMD
 C         -47.147274     -137.782043      -46.226936
 N         -47.194538     -136.968582      -47.118774
 H         -50.577625     -136.404083      -44.709297
 H         -46.966545     -138.268402      -45.294506
 C         -51.294239     -137.228912      -44.786880
 C         -51.408737     -138.028671      -45.971977
 C         -52.569828     -137.158890      -43.834023
 C         -52.158936     -139.372986      -45.832203
 C         -53.356869     -138.467987      -43.784435
 C         -53.504349     -139.244827      -45.130936
 H         -50.326813     -138.297928      -46.226257
 H         -51.768051     -137.385315      -46.727871
 H         -52.240860     -136.707504      -42.901062
 H         -53.196651     -136.407547      -44.261391
 H         -51.625130     -140.161377      -45.212776
 H         -52.057220     -139.904785      -46.818150
 H         -54.275742     -138.533539      -43.126724
 H         -52.824535     -139.168808      -43.164219
 H         -54.182632     -140.164688      -45.000599
 H         -54.195168     -138.641449      -45.699478
