20
 generated by VMD
 C         -69.678497     -185.031708      -66.709877
 N         -69.048805     -184.728821      -67.613197
 H         -69.639687     -183.392792      -63.113098
 H         -70.202118     -185.369919      -65.802193
 C         -69.260124     -183.220642      -62.142509
 C         -69.564903     -184.424545      -61.279278
 C         -68.140312     -182.435028      -61.764252
 C         -68.374344     -185.293884      -60.930374
 C         -66.949150     -183.188293      -61.264980
 C         -67.283844     -184.327393      -60.259438
 H         -70.170982     -185.182144      -61.799519
 H         -70.002792     -184.048416      -60.396900
 H         -67.796707     -181.916641      -62.698242
 H         -68.538429     -181.611801      -61.071590
 H         -67.968483     -185.568924      -61.851795
 H         -68.482018     -186.140427      -60.296398
 H         -66.144135     -182.585632      -60.871868
 H         -66.606018     -183.524673      -62.285072
 H         -66.248192     -184.947144      -60.338093
 H         -67.431122     -184.108185      -59.209412
