20
 generated by VMD
 C         -79.047173     -209.413025      -76.361855
 N         -79.595428     -209.017288      -77.325203
 H         -77.967857     -209.073792      -73.057198
 H         -78.494347     -209.572601      -75.359123
 C         -78.014977     -209.891510      -72.330132
 C         -76.901382     -210.243683      -71.274384
 C         -79.043495     -210.971207      -72.701736
 C         -77.507614     -210.990387      -70.070923
 C         -79.614075     -211.473434      -71.358322
 C         -78.466324     -212.088165      -70.476448
 H         -76.413887     -209.304062      -70.974754
 H         -76.026184     -210.815811      -71.688774
 H         -79.861366     -210.368591      -73.166443
 H         -78.709061     -211.736526      -73.326668
 H         -77.948273     -210.235428      -69.419624
 H         -76.714165     -211.495850      -69.514618
 H         -80.151703     -212.497574      -71.548454
 H         -80.135254     -210.767624      -70.838783
 H         -78.676682     -212.747925      -69.633530
 H         -77.988869     -212.754410      -71.200630
