20
 generated by VMD
 C         -69.056076     -180.539001      -60.948513
 N         -69.742897     -181.274429      -60.386581
 H         -67.187027     -178.134689      -59.681805
 H         -68.389732     -179.871078      -61.417641
 C         -66.234741     -177.651489      -59.889156
 C         -65.857056     -177.721924      -61.305641
 C         -65.388916     -177.125198      -58.829353
 C         -65.025322     -176.540161      -61.731724
 C         -64.352463     -176.046890      -59.141701
 C         -63.894810     -176.278351      -60.634460
 H         -66.779251     -177.665146      -61.895313
 H         -65.427322     -178.616348      -61.655479
 H         -66.096436     -176.884460      -57.976040
 H         -64.864372     -178.029236      -58.567554
 H         -65.840027     -175.777695      -61.714897
 H         -64.733459     -176.681046      -62.850651
 H         -63.578289     -176.151382      -58.403324
 H         -64.925217     -175.126740      -59.049656
 H         -63.468998     -175.322861      -61.133984
 H         -63.130627     -177.091309      -60.651573
