20
 generated by VMD
 C         -27.196350      -72.816551      -17.901773
 N         -27.953974      -73.334923      -17.225252
 H         -25.066710      -70.370781      -18.658331
 H         -26.418274      -72.421593      -18.649380
 C         -25.062101      -70.645073      -19.703983
 C         -24.400526      -71.837158      -20.310081
 C         -25.539980      -69.667412      -20.707638
 C         -25.298845      -72.437965      -21.415394
 C         -26.482725      -70.177979      -21.707964
 C         -25.909027      -71.401573      -22.381060
 H         -24.158669      -72.546722      -19.411837
 H         -23.450901      -71.475006      -20.749403
 H         -25.905281      -68.787552      -20.116077
 H         -24.633055      -69.359657      -21.305141
 H         -26.188253      -72.893646      -20.970495
 H         -24.678532      -73.245926      -21.836283
 H         -26.748348      -69.467140      -22.556482
 H         -27.512066      -70.431297      -21.244726
 H         -26.659853      -71.861885      -22.958693
 H         -25.055084      -71.117058      -22.945887
