20
 generated by VMD
 C         -20.498720      -64.459290      -17.122038
 N         -19.900270      -64.771278      -16.191874
 H         -23.673580      -63.623341      -17.835535
 H         -21.072533      -64.522659      -18.142458
 C         -24.245752      -64.519897      -17.965317
 C         -24.912809      -64.674561      -19.355522
 C         -24.945993      -65.298897      -16.887787
 C         -24.676512      -66.161591      -19.802172
 C         -24.956791      -66.816849      -17.276979
 C         -25.128223      -67.236328      -18.687925
 H         -24.319353      -64.169952      -20.138741
 H         -25.950157      -64.248734      -19.158401
 H         -24.383356      -65.136887      -15.963612
 H         -26.050522      -64.874542      -16.850765
 H         -23.599047      -66.418419      -20.005835
 H         -25.229568      -66.471657      -20.710392
 H         -25.783163      -67.248352      -16.655380
 H         -24.031500      -67.314949      -16.902573
 H         -24.770212      -68.259438      -18.973505
 H         -26.258009      -67.301765      -18.898815
