20
 generated by VMD
 C         -59.896877     -169.617981      -55.531460
 N         -59.665684     -168.626617      -55.052814
 H         -63.026833     -170.480896      -56.556892
 H         -60.119106     -170.623230      -55.847168
 C         -63.209309     -169.430954      -56.794617
 C         -62.804035     -169.006836      -58.144100
 C         -63.585327     -168.365875      -55.717106
 C         -63.369701     -167.649551      -58.686653
 C         -64.140877     -167.060425      -56.277294
 C         -63.539192     -166.593994      -57.609997
 H         -62.877071     -169.704376      -58.863403
 H         -61.687099     -168.650391      -58.046047
 H         -64.124130     -168.825500      -54.996273
 H         -62.660614     -168.150146      -55.318890
 H         -64.424408     -167.750046      -59.047302
 H         -62.776119     -167.419281      -59.601078
 H         -63.978104     -166.280716      -55.522884
 H         -65.152336     -167.149551      -56.502090
 H         -64.081551     -165.718521      -57.961063
 H         -62.567570     -166.148788      -57.319553
