20
 generated by VMD
 C         -69.142868     -194.215805      -64.616959
 N         -68.403000     -193.950226      -65.448395
 H         -71.098656     -194.189529      -67.666481
 H         -69.628868     -194.451126      -63.736439
 C         -71.881767     -193.507751      -67.225723
 C         -71.541763     -192.152603      -66.613022
 C         -73.304222     -194.003555      -67.234879
 C         -72.560760     -191.655426      -65.561104
 C         -74.392746     -192.984253      -66.822891
 C         -73.926041     -192.346680      -65.422119
 H         -71.340256     -191.504333      -67.462555
 H         -70.553535     -192.420074      -66.066803
 H         -73.519203     -194.225876      -68.261131
 H         -73.501892     -194.879974      -66.528549
 H         -72.751404     -190.602798      -65.964195
 H         -72.013557     -191.606598      -64.599213
 H         -75.306564     -193.633820      -66.777039
 H         -74.550613     -192.186829      -67.553398
 H         -74.641975     -191.696167      -65.002678
 H         -73.791328     -193.316925      -64.730118
