20
 generated by VMD
 C         -15.176115      -46.511013       -5.979441
 N         -14.959656      -47.368061       -5.313422
 H         -15.768640      -45.650509       -9.579453
 H         -14.887489      -45.518673      -11.193753
 C         -15.872090      -45.517326      -10.706716
 C         -16.440145      -44.093147      -11.059005
 C         -16.660366      -46.658745      -11.344329
 C         -16.529530      -44.066380      -12.530633
 C         -16.713915      -46.612946      -12.891650
 C         -17.256227      -45.222328      -13.192299
 H         -15.697693      -43.363194      -10.655622
 H         -17.376932      -43.893551      -10.547711
 H         -16.134577      -47.553425      -11.021311
 H         -17.712946      -46.737110      -11.001581
 H         -15.517136      -44.124531      -12.974127
 H         -16.937914      -43.113422      -12.851163
 H         -17.470335      -47.356571      -13.314583
 H         -15.753044      -46.855747      -13.448312
 H         -17.287109      -45.121723      -14.305247
 H         -18.295692      -45.113617      -12.883419
