20
 generated by VMD
 C         -31.064528      -75.014412      -21.542347
 N         -31.795708      -75.890915      -21.774916
 H         -28.328239      -76.414093      -20.636633
 H         -30.328367      -74.318420      -21.481863
 C         -27.518652      -75.932426      -21.182732
 C         -26.729900      -76.985100      -21.899881
 C         -26.752048      -74.748878      -20.678982
 C         -25.722149      -76.419083      -22.876831
 C         -25.820969      -74.228844      -21.645216
 C         -24.908762      -75.316269      -22.200588
 H         -27.325346      -77.830696      -22.279856
 H         -26.247377      -77.504906      -21.087088
 H         -27.378521      -73.826500      -20.293613
 H         -26.065504      -75.125778      -19.842997
 H         -26.402134      -76.030434      -23.637075
 H         -25.099447      -77.182327      -23.329603
 H         -25.209665      -73.440353      -21.235607
 H         -26.253302      -73.727531      -22.500734
 H         -24.153591      -74.849319      -22.830748
 H         -24.202284      -75.760544      -21.462208
