20
 generated by VMD
 C         -26.884876      -71.968445      -17.547316
 N         -27.285212      -73.035606      -17.297405
 H         -24.631584      -70.328453      -18.591413
 H         -26.469172      -70.943222      -17.692106
 C         -24.945871      -70.409698      -19.616379
 C         -24.320753      -71.625038      -20.287773
 C         -25.768898      -69.409142      -20.404743
 C         -25.073715      -72.187668      -21.464521
 C         -26.665113      -70.034691      -21.513554
 C         -25.898638      -71.132141      -22.286041
 H         -24.064184      -72.353836      -19.605640
 H         -23.341646      -71.301964      -20.731159
 H         -26.536697      -68.917503      -19.778717
 H         -25.052914      -68.759674      -20.835634
 H         -25.733412      -72.906281      -21.037582
 H         -24.366871      -72.748474      -22.111149
 H         -27.098297      -69.205437      -22.183470
 H         -27.511831      -70.635696      -20.978666
 H         -26.678074      -71.551208      -22.914312
 H         -25.271893      -70.608307      -22.993999
