20
 generated by VMD
 C         -40.677357     -103.969398      -37.050457
 N         -40.168308     -104.866966      -36.498913
 H         -40.570717     -106.559013      -34.026199
 H         -41.253246     -103.180801      -37.557758
 C         -39.706284     -107.102905      -33.641739
 C         -38.408146     -106.534775      -33.119728
 C         -39.814770     -108.637611      -33.425030
 C         -38.147961     -106.955078      -31.731049
 C         -39.696941     -108.923203      -31.958931
 C         -38.323452     -108.490402      -31.452311
 H         -38.617531     -105.435966      -33.211975
 H         -37.551384     -106.869644      -33.652462
 H         -40.879578     -108.818985      -33.888489
 H         -39.089493     -109.290535      -33.965122
 H         -38.767033     -106.361275      -31.101667
 H         -37.142864     -106.617714      -31.463808
 H         -39.729313     -110.069153      -31.836121
 H         -40.480644     -108.401810      -31.330412
 H         -38.177052     -108.635773      -30.331104
 H         -37.461479     -108.899147      -31.920025
