20
 generated by VMD
 C          -9.992823      -36.473808       -7.140634
 N         -10.208585      -36.655117       -8.208037
 H         -13.379694      -38.160698       -7.934503
 H         -14.588352      -38.528351       -6.791570
 C         -14.178432      -38.827915       -7.750877
 C         -13.493981      -40.183609       -7.530696
 C         -15.316524      -38.831692       -8.764590
 C         -14.480857      -41.310436       -7.526090
 C         -16.271845      -39.918846       -8.440166
 C         -15.561474      -41.229099       -8.554024
 H         -12.944211      -40.128807       -6.592299
 H         -12.837752      -40.448223       -8.341272
 H         -15.822412      -37.802837       -8.729227
 H         -14.918071      -38.980751       -9.772652
 H         -14.949289      -41.278763       -6.503566
 H         -13.947230      -42.252586       -7.680016
 H         -17.158714      -39.797710       -9.133897
 H         -16.669289      -39.709450       -7.485313
 H         -16.297050      -42.053024       -8.278788
 H         -15.143813      -41.515881       -9.523127
