20
 generated by VMD
 C         -38.325935     -110.919067      -36.254356
 N         -38.130028     -109.801933      -36.405804
 H         -40.425392     -114.070564      -35.180222
 H         -38.377930     -111.976631      -36.340519
 C         -41.062012     -113.297966      -35.678276
 C         -42.018230     -113.744606      -36.724899
 C         -41.629551     -112.189667      -34.806751
 C         -43.271526     -114.125343      -36.097202
 C         -42.961250     -112.668442      -34.225578
 C         -43.944534     -113.044090      -35.279449
 H         -41.738594     -114.655846      -37.196964
 H         -42.170185     -112.937355      -37.484711
 H         -40.848598     -112.057846      -33.966251
 H         -41.723747     -111.176239      -35.358784
 H         -43.071781     -115.056107      -35.508469
 H         -43.923939     -114.643494      -36.753178
 H         -43.310768     -111.880875      -33.501087
 H         -42.816204     -113.577690      -33.554649
 H         -44.965927     -113.361038      -34.946949
 H         -44.177319     -112.310539      -35.950020
