20
 generated by VMD
 C         -41.258411     -102.869591      -35.732586
 N         -41.295898     -104.006767      -35.516670
 H         -39.411659     -104.386497      -33.730835
 H         -41.352249     -101.794441      -35.970886
 C         -38.750027     -105.094963      -33.088123
 C         -37.214272     -104.753090      -32.825874
 C         -39.098492     -106.458443      -32.618698
 C         -36.545284     -105.217552      -31.538982
 C         -38.591141     -106.728729      -31.250961
 C         -37.040722     -106.572266      -31.036951
 H         -37.079632     -103.711899      -32.989113
 H         -36.782246     -105.216927      -33.661324
 H         -40.269173     -106.485870      -32.547073
 H         -38.811192     -107.197975      -33.325680
 H         -36.994511     -104.603310      -30.779488
 H         -35.428448     -105.050613      -31.614922
 H         -38.965275     -107.752655      -31.129423
 H         -39.056808     -106.147812      -30.507318
 H         -36.940353     -106.709480      -29.999498
 H         -36.469761     -107.413986      -31.546215
