20
 generated by VMD
 C         -29.386269      -74.661774      -19.604767
 N         -30.449335      -74.409500      -20.097614
 H         -25.774055      -73.400818      -18.852993
 H         -28.561710      -74.861496      -19.012320
 C         -25.699442      -73.359489      -19.918068
 C         -25.339048      -74.572891      -20.766424
 C         -25.462208      -71.965652      -20.461250
 C         -26.008108      -74.506264      -22.128876
 C         -26.100258      -71.883812      -21.915335
 C         -25.652033      -73.173264      -22.709778
 H         -25.637232      -75.589073      -20.145535
 H         -24.253368      -74.620209      -20.812534
 H         -25.763111      -71.161995      -19.762690
 H         -24.395353      -71.711502      -20.701786
 H         -27.106865      -74.453865      -22.084200
 H         -25.721430      -75.424759      -22.701605
 H         -25.911703      -70.991234      -22.535440
 H         -27.093950      -72.011536      -21.777500
 H         -26.151209      -73.156326      -23.728804
 H         -24.536989      -73.164848      -22.947367
