20
 generated by VMD
 C         -68.390259     -194.057846      -65.999321
 N         -67.872665     -194.556107      -65.107483
 H         -70.695938     -191.636566      -67.386292
 H         -68.596619     -193.546448      -66.945602
 C         -71.455894     -191.558655      -66.610901
 C         -72.317810     -190.354828      -66.498108
 C         -71.704811     -192.862885      -65.796173
 C         -73.814064     -190.624252      -66.170494
 C         -72.943375     -192.564514      -64.797058
 C         -74.174225     -191.925278      -65.519020
 H         -72.251030     -189.792053      -67.519936
 H         -71.808441     -189.818817      -65.780312
 H         -72.027748     -193.683121      -66.484474
 H         -70.907799     -193.049194      -65.148918
 H         -74.442352     -190.711151      -67.064842
 H         -74.207527     -189.804504      -65.529091
 H         -72.728371     -191.901276      -64.015213
 H         -73.237556     -193.485474      -64.279007
 H         -74.473206     -192.618484      -66.347008
 H         -75.091011     -191.827423      -64.872665
