20
 generated by VMD
 C         -70.377609     -197.125626      -66.160393
 N         -69.756706     -196.211685      -65.763908
 H         -72.004570     -194.327347      -64.749527
 H         -70.667557     -198.072250      -66.516159
 C         -72.575371     -194.199600      -65.647263
 C         -72.619576     -192.746979      -66.066986
 C         -73.385834     -195.239426      -66.313148
 C         -73.601120     -192.523849      -67.198311
 C         -73.890175     -194.904694      -67.753479
 C         -73.423531     -193.563080      -68.274239
 H         -71.537506     -192.273819      -66.327934
 H         -72.782784     -192.033859      -65.287460
 H         -72.808403     -196.154480      -66.230591
 H         -74.142082     -195.256302      -65.548622
 H         -73.367470     -191.558884      -67.718857
 H         -74.641747     -192.339767      -66.811325
 H         -74.953560     -195.004059      -67.846733
 H         -73.459824     -195.686478      -68.426079
 H         -72.417412     -193.576279      -68.514381
 H         -73.889191     -193.269516      -69.255882
