20
 generated by VMD
 C         -13.775344      -45.448898       -5.634874
 N         -14.333047      -45.187855       -6.554654
 H         -14.970811      -44.201275       -9.152145
 H         -14.387283      -43.970219      -10.743020
 C         -15.311062      -44.287998      -10.212212
 C         -16.424610      -43.273735      -10.559901
 C         -15.728168      -45.680504      -10.545971
 C         -17.072346      -43.323189      -11.928234
 C         -16.224718      -45.644054      -12.018152
 C         -17.393967      -44.716999      -12.374098
 H         -16.031176      -42.270424      -10.293010
 H         -17.319298      -43.332752       -9.865415
 H         -14.944614      -46.449677      -10.477519
 H         -16.521263      -46.096096       -9.840385
 H         -16.353537      -42.985291      -12.671301
 H         -17.937256      -42.645218      -12.031440
 H         -16.443148      -46.692356      -12.330681
 H         -15.306439      -45.376293      -12.650718
 H         -17.477623      -44.572750      -13.453341
 H         -18.342995      -45.121937      -11.952765
