20
 generated by VMD
 C         -20.464273      -61.509216      -17.035341
 N         -19.376627      -61.095074      -17.199179
 H         -21.729214      -64.978279      -16.961594
 H         -21.592070      -61.695030      -16.952623
 C         -22.786356      -64.912834      -17.096109
 C         -22.987415      -64.232643      -18.414591
 C         -23.781677      -65.127510      -16.002365
 C         -24.477047      -64.598083      -18.796555
 C         -25.156448      -65.442734      -16.474192
 C         -25.458195      -64.558022      -17.664560
 H         -22.280525      -64.609612      -19.129196
 H         -22.919001      -63.234570      -18.258255
 H         -23.412325      -66.000641      -15.389478
 H         -23.885538      -64.401703      -15.288310
 H         -24.525309      -65.560814      -19.293598
 H         -24.876762      -63.957394      -19.638313
 H         -25.948462      -65.263710      -15.688783
 H         -25.183918      -66.484940      -16.755928
 H         -26.557041      -64.715195      -17.948809
 H         -25.555502      -63.544601      -17.273123
