20
 generated by VMD
 C         -47.661591     -138.014038      -45.947632
 N         -47.288704     -137.603165      -46.977551
 H         -50.326588     -137.307495      -44.417980
 H         -48.124741     -138.480667      -45.114651
 C         -51.195168     -137.821640      -44.816818
 C         -51.334793     -138.482178      -46.134502
 C         -52.534164     -137.606033      -44.019943
 C         -52.419113     -139.689499      -46.163349
 C         -53.570545     -138.737152      -44.150166
 C         -53.696106     -139.315750      -45.573364
 H         -50.425388     -138.910583      -46.408031
 H         -51.653969     -137.775452      -46.890907
 H         -52.362213     -137.580963      -42.921417
 H         -53.020760     -136.681488      -44.274334
 H         -52.063110     -140.439362      -45.560349
 H         -52.407070     -140.130035      -47.146702
 H         -54.565006     -138.267242      -43.787395
 H         -53.350578     -139.470261      -43.404160
 H         -54.434113     -140.108124      -45.677864
 H         -54.075413     -138.572495      -46.184414
