20
 generated by VMD
 C         -65.037605     -175.711380      -55.817760
 N         -64.653282     -176.761307      -56.089169
 H         -63.963520     -174.131012      -58.220737
 H         -65.439255     -174.748611      -55.494358
 C         -64.488564     -173.530151      -58.939373
 C         -65.518639     -172.350418      -58.568497
 C         -63.942257     -173.353210      -60.442921
 C         -64.569191     -171.202118      -58.485859
 C         -63.100983     -171.947128      -60.506165
 C         -63.887249     -170.864151      -59.731770
 H         -66.034767     -172.575394      -57.583012
 H         -66.140160     -172.414017      -59.355114
 H         -63.290916     -174.099579      -60.667141
 H         -64.796989     -173.197174      -61.102425
 H         -63.768993     -171.425781      -57.695232
 H         -65.052849     -170.248352      -58.100315
 H         -63.047577     -171.732010      -61.543327
 H         -62.085976     -172.052322      -60.064144
 H         -63.167912     -170.087219      -59.532192
 H         -64.656624     -170.464218      -60.449974
