20
 generated by VMD
 C          -9.953037      -24.632339        0.412734
 N         -10.417671      -25.114357       -0.481554
 H          -6.353467      -24.621199       -0.869820
 H          -8.051943      -24.278772       -1.092137
 C          -7.125041      -24.358345       -1.664233
 C          -7.112982      -25.494528       -2.670387
 C          -6.826956      -22.966419       -2.172485
 C          -8.011555      -25.042418       -3.854844
 C          -7.760325      -22.556549       -3.395362
 C          -7.755508      -23.711998       -4.474051
 H          -7.529984      -26.356974       -2.147805
 H          -6.143953      -25.689323       -3.068552
 H          -7.031292      -22.323629       -1.344282
 H          -5.728269      -22.951910       -2.441728
 H          -9.066471      -25.081015       -3.526831
 H          -7.828550      -25.793634       -4.673150
 H          -7.340200      -21.667080       -3.865191
 H          -8.795846      -22.339684       -3.110415
 H          -8.522802      -23.545616       -5.202869
 H          -6.764904      -23.792751       -4.987647
