20
 generated by VMD
 C         -72.636452     -199.343628      -65.331825
 N         -71.632507     -199.536057      -64.768257
 H         -71.280800     -196.019867      -67.061134
 H         -73.438881     -198.857391      -65.905991
 C         -72.171028     -195.719818      -67.632217
 C         -72.860657     -194.453094      -67.149605
 C         -72.672256     -196.492203      -68.794571
 C         -74.075737     -194.098404      -67.889549
 C         -74.201874     -196.471298      -68.970146
 C         -74.994804     -195.295532      -68.173355
 H         -72.057808     -193.734711      -67.332603
 H         -73.139900     -194.446014      -66.159821
 H         -72.117149     -196.003326      -69.629410
 H         -72.303329     -197.565933      -68.858086
 H         -73.834534     -193.732986      -68.919952
 H         -74.664742     -193.423111      -67.239525
 H         -74.575623     -197.481491      -68.771576
 H         -74.345772     -196.286911      -70.043350
 H         -75.801903     -195.120438      -68.836296
 H         -75.197777     -195.738541      -67.174477
