20
 generated by VMD
 C         -69.995468     -182.969635      -65.950272
 N         -71.107307     -183.186401      -65.673836
 H         -67.729210     -182.960724      -63.144955
 H         -68.945480     -182.803284      -66.246323
 C         -67.461533     -182.567841      -62.178204
 C         -67.606026     -183.470016      -60.939903
 C         -67.156082     -181.165253      -61.965252
 C         -66.764214     -183.203201      -59.761864
 C         -66.291550     -180.904160      -60.775631
 C         -66.759232     -181.691971      -59.571259
 H         -67.433723     -184.535355      -61.259209
 H         -68.680244     -183.384628      -60.833851
 H         -66.904297     -180.690277      -62.878845
 H         -68.113823     -180.609619      -61.730564
 H         -65.780998     -183.567352      -59.988716
 H         -67.182449     -183.498138      -58.847519
 H         -66.254791     -179.846161      -60.523560
 H         -65.253159     -181.196030      -61.085670
 H         -66.155136     -181.430008      -58.770962
 H         -67.713036     -181.261734      -59.189140
