20
 generated by VMD
 C         -60.535683     -153.324066      -52.098347
 N         -60.445087     -152.562881      -51.278442
 H         -57.451530     -153.712524      -50.000534
 H         -60.597126     -153.953522      -52.974743
 C         -56.532162     -153.209976      -50.259594
 C         -55.255657     -153.645859      -49.458485
 C         -56.615429     -151.900085      -50.970673
 C         -54.060677     -152.891342      -49.964500
 C         -55.368153     -151.483780      -51.708870
 C         -54.238850     -151.548874      -50.692062
 H         -55.022907     -154.732971      -49.726364
 H         -55.347866     -153.545273      -48.377769
 H         -57.420925     -151.905563      -51.716923
 H         -56.984295     -151.145416      -50.251408
 H         -53.618053     -153.483810      -50.768639
 H         -53.351101     -152.790619      -49.146294
 H         -55.454330     -150.374863      -52.072269
 H         -55.190029     -152.037292      -52.667236
 H         -53.372967     -151.118973      -51.167984
 H         -54.641212     -150.825195      -49.957287
