20
 generated by VMD
 C         -47.881065     -134.193268      -47.531574
 N         -48.067543     -133.523758      -48.478237
 H         -49.766838     -134.174728      -44.353409
 H         -47.932125     -135.063980      -46.826565
 C         -50.204304     -135.045319      -43.757187
 C         -50.363373     -136.229980      -44.643665
 C         -51.139679     -134.850723      -42.610214
 C         -50.604004     -137.528961      -43.858459
 C         -51.411133     -136.219635      -41.841148
 C         -51.743389     -137.293182      -42.799530
 H         -49.574387     -136.292252      -45.387939
 H         -51.356571     -136.070648      -45.189476
 H         -50.682976     -134.270187      -41.838078
 H         -52.010784     -134.339233      -42.904953
 H         -49.695091     -137.706207      -43.278755
 H         -50.707367     -138.376205      -44.567223
 H         -52.147923     -136.067322      -41.015053
 H         -50.393639     -136.543610      -41.316872
 H         -52.074013     -138.338928      -42.325546
 H         -52.625351     -136.998550      -43.350025
