20
 generated by VMD
 C         -41.340099     -119.297722      -34.659924
 N         -40.561085     -119.450951      -35.481396
 H         -43.565395     -117.760811      -36.482876
 H         -41.937241     -119.031219      -33.829475
 C         -43.936958     -117.785004      -37.519672
 C         -42.901638     -117.993164      -38.590561
 C         -45.227581     -117.096451      -37.588917
 C         -43.688633     -118.450378      -39.787724
 C         -45.965538     -117.688438      -38.724804
 C         -45.036129     -117.755051      -40.011749
 H         -42.047371     -118.681786      -38.200169
 H         -42.316109     -116.993439      -38.862587
 H         -45.791225     -117.353882      -36.674026
 H         -45.194752     -116.064049      -37.709923
 H         -43.958412     -119.531921      -39.650974
 H         -43.030449     -118.369820      -40.724499
 H         -46.700172     -117.026489      -38.950336
 H         -46.246155     -118.703529      -38.555065
 H         -45.528526     -118.243202      -40.868679
 H         -44.775742     -116.756241      -40.237888
