20
 generated by VMD
 C         -41.086430     -102.463272      -35.126953
 N         -41.558064     -103.102409      -35.957928
 H         -39.757988     -104.289780      -32.952888
 H         -40.978676     -101.827103      -34.224831
 C         -38.851559     -104.827812      -32.499672
 C         -37.385139     -104.384834      -32.942825
 C         -38.777538     -106.185524      -31.853334
 C         -36.375969     -104.384605      -31.749773
 C         -37.771950     -106.191711      -30.774851
 C         -36.413574     -105.747414      -31.080532
 H         -37.427834     -103.339706      -33.395901
 H         -37.105888     -105.173477      -33.723267
 H         -39.770805     -106.583992      -31.366196
 H         -38.494698     -106.852440      -32.655525
 H         -36.672001     -103.580025      -31.007975
 H         -35.371845     -104.132912      -32.176662
 H         -37.737957     -107.202255      -30.278347
 H         -37.994141     -105.485298      -29.924973
 H         -35.953377     -105.631569      -30.131357
 H         -35.743408     -106.472977      -31.660397
