20
 generated by VMD
 C         -28.081856      -81.248207      -27.583782
 N         -29.242783      -81.153275      -27.473375
 H         -29.403471      -83.003326      -24.951691
 H         -27.069439      -81.281151      -27.690662
 C         -30.164539      -83.621483      -24.517809
 C         -30.148672      -83.954514      -22.967024
 C         -30.793346      -84.770515      -25.307014
 C         -31.595642      -84.356575      -22.529718
 C         -32.231213      -84.992508      -24.823385
 C         -32.191624      -85.386749      -23.384024
 H         -29.794817      -82.973198      -22.432449
 H         -29.418110      -84.736794      -22.715157
 H         -30.861029      -84.557854      -26.367596
 H         -30.080233      -85.629128      -25.225542
 H         -32.302914      -83.427330      -22.669210
 H         -31.441376      -84.697075      -21.527582
 H         -32.795742      -85.744743      -25.443464
 H         -32.819584      -83.969154      -24.810509
 H         -33.266724      -85.511444      -23.032541
 H         -31.726217      -86.410896      -23.378759
