20
 generated by VMD
 C         -50.650974     -130.902283      -46.384415
 N         -50.244015     -131.048813      -47.531162
 H         -48.359463     -131.883438      -44.359589
 H         -50.755413     -130.775406      -45.309082
 C         -48.563046     -132.291794      -43.340679
 C         -49.196545     -133.696198      -43.065685
 C         -48.453552     -131.418869      -42.115356
 C         -48.538464     -134.358307      -41.935726
 C         -47.911449     -132.172394      -40.902416
 C         -48.475395     -133.573608      -40.688702
 H         -49.092655     -134.311523      -44.052624
 H         -50.243042     -133.654327      -42.969894
 H         -47.817833     -130.430786      -42.445614
 H         -49.527958     -131.032166      -41.943748
 H         -47.591091     -134.559158      -42.421043
 H         -48.975727     -135.344711      -41.785053
 H         -48.073586     -131.541824      -40.025696
 H         -46.786678     -132.397949      -41.117397
 H         -47.995293     -134.164795      -39.901527
 H         -49.452675     -133.407486      -40.113499
