20
 generated by VMD
 C         -29.463165      -79.987404      -26.534121
 N         -29.780870      -80.171310      -27.664967
 H         -28.168629      -82.736877      -24.823494
 H         -28.985434      -79.946068      -25.624363
 C         -29.156586      -82.949516      -24.287348
 C         -29.304712      -82.763710      -22.792439
 C         -29.997887      -84.094261      -24.899626
 C         -30.782631      -82.859108      -22.256895
 C         -31.400915      -84.212509      -24.273426
 C         -31.437414      -84.039337      -22.774693
 H         -28.765272      -81.852409      -22.469700
 H         -28.738159      -83.640816      -22.418190
 H         -30.229143      -83.965462      -25.903425
 H         -29.393612      -85.005203      -24.690042
 H         -31.422558      -81.951469      -22.560913
 H         -30.624950      -82.978943      -21.227882
 H         -31.783590      -85.164139      -24.354067
 H         -32.106205      -83.472748      -24.700918
 H         -32.478474      -83.860229      -22.501381
 H         -31.171270      -84.969849      -22.310900
