20
 generated by VMD
 C         -21.569874      -65.842102      -16.978821
 N         -20.990063      -66.386765      -16.167858
 H         -24.071215      -63.953526      -18.182961
 H         -22.144966      -65.056793      -17.488163
 C         -24.496595      -64.914467      -18.385609
 C         -24.400799      -65.370178      -19.854849
 C         -25.318470      -65.650948      -17.510967
 C         -24.409393      -66.920517      -20.013620
 C         -25.225929      -67.262497      -17.614107
 C         -25.199522      -67.746231      -19.053570
 H         -23.510777      -64.884895      -20.284594
 H         -25.244638      -64.817978      -20.342674
 H         -25.260809      -65.326149      -16.492794
 H         -26.311794      -65.322823      -17.680738
 H         -23.419683      -67.327431      -19.958975
 H         -24.684374      -66.996033      -21.073889
 H         -26.066908      -67.676285      -17.055777
 H         -24.359406      -67.510231      -16.967653
 H         -24.807775      -68.745697      -19.157360
 H         -26.281530      -67.833900      -19.435373
