20
 generated by VMD
 C         -76.484428     -203.068665      -66.590935
 N         -77.257004     -203.503937      -65.826172
 H         -75.603050     -200.564316      -68.772453
 H         -75.853249     -202.642349      -67.360703
 C         -74.812439     -199.876587      -69.021774
 C         -74.811775     -198.451218      -68.529053
 C         -73.703041     -200.346497      -69.859177
 C         -73.466583     -197.613190      -68.795021
 C         -73.178818     -199.268539      -70.801018
 C         -72.722748     -197.984940      -70.135414
 H         -74.923378     -198.521713      -67.358223
 H         -75.712402     -197.917877      -68.906128
 H         -72.946602     -200.864075      -69.175552
 H         -74.133888     -201.167816      -70.448303
 H         -72.778572     -197.955063      -68.027985
 H         -73.690636     -196.530045      -68.695435
 H         -73.897766     -199.062988      -71.568672
 H         -72.348717     -199.578217      -71.446243
 H         -71.595558     -198.089493      -69.838387
 H         -72.820030     -197.241928      -70.869576
