20
 generated by VMD
 C         -10.605973      -33.563385       -8.778182
 N         -11.102531      -32.694458       -9.333444
 H         -11.759451      -36.941868       -8.162000
 H         -12.087638      -36.068165       -6.715409
 C         -12.387040      -36.939823       -7.256212
 C         -11.931271      -38.190609       -6.455571
 C         -13.881715      -36.917091       -7.506314
 C         -12.858118      -38.495716       -5.209052
 C         -14.745769      -37.224964       -6.293672
 C         -14.329240      -38.448227       -5.518517
 H         -10.844590      -38.111225       -6.160349
 H         -11.939015      -39.095062       -7.079418
 H         -14.213694      -35.922733       -7.963677
 H         -14.136971      -37.603851       -8.327840
 H         -12.651520      -37.623188       -4.500444
 H         -12.517464      -39.385258       -4.697652
 H         -15.801912      -37.298393       -6.585983
 H         -14.642385      -36.346531       -5.662901
 H         -14.908005      -38.572910       -4.592861
 H         -14.570637      -39.225811       -6.197779
