20
 generated by VMD
 C         -60.225033     -156.140732      -55.817841
 N         -60.581474     -155.110229      -55.555862
 H         -59.912655     -157.799469      -52.532200
 H         -59.887531     -157.126328      -55.985725
 C         -58.949810     -157.738983      -52.111568
 C         -58.269264     -156.371826      -52.210381
 C         -58.124462     -158.917114      -51.642502
 C         -57.185902     -156.025421      -51.063488
 C         -57.000099     -158.529953      -50.675060
 C         -56.177769     -157.258377      -51.028568
 H         -59.093685     -155.594940      -52.203194
 H         -57.622704     -156.325577      -53.115349
 H         -58.835217     -159.646149      -51.180466
 H         -57.729202     -159.263138      -52.565063
 H         -57.808842     -155.952362      -50.226391
 H         -56.559978     -155.084106      -51.172558
 H         -56.258976     -159.341003      -50.718857
 H         -57.381355     -158.517487      -49.745327
 H         -55.523296     -157.192749      -50.229698
 H         -55.626472     -157.399704      -52.046501
