20
 generated by VMD
 C         -57.810902     -150.698196      -48.617458
 N         -58.169277     -151.754532      -48.581135
 H         -55.054707     -149.368179      -47.591450
 H         -57.485798     -149.667160      -48.730522
 C         -54.729488     -148.992432      -48.528088
 C         -53.911495     -149.848190      -49.354225
 C         -54.773010     -147.564240      -48.851162
 C         -54.288013     -149.682541      -50.813473
 C         -55.047104     -147.323837      -50.317532
 C         -54.193237     -148.133148      -51.193127
 H         -54.017380     -150.871475      -49.144245
 H         -52.914906     -149.641159      -49.144581
 H         -55.463505     -147.085068      -48.065769
 H         -53.812500     -147.111389      -48.560658
 H         -55.321476     -149.981201      -51.028625
 H         -53.651348     -150.277481      -51.465618
 H         -54.661476     -146.194489      -50.419395
 H         -56.080654     -147.481949      -50.460735
 H         -54.420670     -148.072266      -52.282059
 H         -53.131508     -147.974991      -50.999275
