20
 generated by VMD
 C         -31.875267      -76.413864      -24.608639
 N         -31.714552      -76.853310      -25.683372
 H         -29.457762      -77.222893      -22.388826
 H         -31.650805      -75.929192      -23.554291
 C         -28.542063      -77.727898      -22.155323
 C         -27.573196      -78.060417      -23.306768
 C         -28.595324      -78.591286      -21.016392
 C         -26.118563      -78.320633      -22.750010
 C         -27.153788      -78.959366      -20.439533
 C         -26.060724      -79.169754      -21.452250
 H         -27.646311      -77.145187      -24.095726
 H         -27.923643      -78.947273      -23.956356
 H         -29.147694      -78.092949      -20.269117
 H         -29.144943      -79.547165      -21.247507
 H         -25.732975      -77.326050      -22.433020
 H         -25.438013      -78.733566      -23.485861
 H         -27.310482      -79.716011      -19.672146
 H         -26.776600      -77.981224      -19.887424
 H         -25.023193      -79.063728      -20.985901
 H         -26.321589      -80.221199      -21.774961
