20
 generated by VMD
 C         -20.617231      -64.433464      -16.851385
 N         -19.570951      -64.119408      -16.438797
 H         -24.348314      -63.219856      -17.573280
 H         -21.466732      -64.810654      -17.369644
 C         -24.469032      -64.249924      -17.855711
 C         -24.603783      -64.633743      -19.274639
 C         -24.627050      -65.319565      -16.687059
 C         -24.790600      -66.086418      -19.737164
 C         -24.591824      -66.728706      -17.299589
 C         -25.466555      -66.821884      -18.566511
 H         -23.760073      -64.148483      -19.722864
 H         -25.489061      -64.163994      -19.746847
 H         -23.726610      -65.098526      -15.942595
 H         -25.669954      -65.153641      -16.254225
 H         -23.784019      -66.583786      -19.983128
 H         -25.380547      -66.092873      -20.745703
 H         -24.956268      -67.494003      -16.610157
 H         -23.526394      -67.036339      -17.558058
 H         -25.418959      -67.868027      -18.819317
 H         -26.595791      -66.617996      -18.382423
