20
 generated by VMD
 C          -5.876248      -21.129574        1.574115
 N          -5.718708      -21.551651        2.585521
 H          -4.982220      -18.452959       -1.258893
 H          -5.437372      -19.881987       -0.375281
 C          -5.730260      -19.235590       -1.215141
 C          -5.541907      -20.218279       -2.394425
 C          -7.154613      -18.713324       -1.128575
 C          -6.619357      -21.338730       -2.396039
 C          -8.195296      -19.842003       -1.169159
 C          -7.956450      -20.717314       -2.379042
 H          -4.564753      -20.657925       -2.361048
 H          -5.590004      -19.751556       -3.443480
 H          -7.191960      -18.169510       -0.166835
 H          -7.296815      -17.823090       -1.783421
 H          -6.516870      -22.100487       -1.613125
 H          -6.446496      -21.843269       -3.375594
 H          -9.219713      -19.416941       -1.277808
 H          -8.216151      -20.420324       -0.238477
 H          -8.732316      -21.500343       -2.528965
 H          -8.103121      -20.045538       -3.280727
