20
 generated by VMD
 C         -38.331165     -110.911591      -36.245106
 N         -38.117836     -109.784363      -36.405399
 H         -40.390343     -114.063438      -35.178425
 H         -38.363041     -112.024155      -36.357243
 C         -41.057407     -113.295929      -35.698078
 C         -42.031898     -113.739685      -36.727165
 C         -41.614178     -112.179398      -34.814716
 C         -43.278233     -114.131836      -36.068546
 C         -42.965240     -112.665672      -34.245640
 C         -43.931854     -113.050552      -35.271736
 H         -41.725479     -114.663345      -37.212025
 H         -42.165958     -112.983032      -37.448299
 H         -40.947418     -112.062805      -33.891975
 H         -41.728886     -111.086403      -35.271751
 H         -43.043533     -114.923248      -35.476738
 H         -43.989796     -114.612732      -36.726097
 H         -43.283199     -111.894066      -33.454670
 H         -42.784424     -113.569641      -33.555626
 H         -44.929420     -113.344101      -34.929390
 H         -44.195465     -112.340988      -35.982830
