20
 generated by VMD
 C         -39.631886     -100.510887      -30.892218
 N         -40.465549     -100.043671      -31.579060
 H         -36.856800     -103.180298      -31.036333
 H         -38.877262     -100.998535      -30.361906
 C         -36.598808     -102.102562      -30.985786
 C         -36.752209     -101.320053      -32.368587
 C         -35.595116     -101.719101      -29.971561
 C         -36.410606      -99.763512      -32.239117
 C         -35.237843     -100.129204      -30.029451
 C         -35.228836      -99.335297      -31.371204
 H         -37.764542     -101.558731      -32.778866
 H         -36.059284     -101.709808      -33.120007
 H         -35.860538     -101.821068      -28.960958
 H         -34.623447     -102.207855      -30.183025
 H         -37.344131      -99.207642      -31.903191
 H         -36.283905      -99.375771      -33.266296
 H         -34.215164      -99.932907      -29.571154
 H         -35.986473      -99.537033      -29.424997
 H         -35.318336      -98.301842      -31.096125
 H         -34.364059      -99.557152      -31.972418
