20
 generated by VMD
 C         -32.312901      -95.180832      -25.515553
 N         -33.317398      -95.131248      -24.960323
 H         -33.912064      -94.534538      -27.795572
 H         -31.453556      -95.114693      -26.182137
 C         -34.259007      -93.956192      -28.577396
 C         -35.684528      -93.641510      -28.792551
 C         -33.430759      -93.485420      -29.684515
 C         -35.977386      -92.169632      -29.166353
 C         -33.695183      -92.049316      -30.249199
 C         -35.163086      -91.799904      -30.505281
 H         -36.129875      -93.842926      -27.766146
 H         -36.193714      -94.246078      -29.560326
 H         -32.368374      -93.521973      -29.343739
 H         -33.551254      -94.160965      -30.521961
 H         -35.593616      -91.452362      -28.451540
 H         -37.113598      -91.916985      -29.291975
 H         -33.003128      -91.796181      -31.058350
 H         -33.225780      -91.337723      -29.491238
 H         -35.248196      -90.687729      -30.578547
 H         -35.363838      -92.385078      -31.326832
