20
 generated by VMD
 C         -21.582336      -52.433819      -11.368447
 N         -21.462656      -52.946209      -10.300114
 H         -19.796608      -50.527489      -13.688966
 H         -21.409136      -51.787365      -12.430867
 C         -18.830595      -51.012802      -13.551630
 C         -18.238300      -51.994865      -14.513161
 C         -18.212984      -50.676247      -12.208914
 C         -16.737551      -51.971058      -14.426549
 C         -16.725668      -50.671452      -12.183713
 C         -16.185524      -51.833904      -12.958676
 H         -18.524912      -51.597385      -15.506608
 H         -18.690125      -52.988377      -14.415616
 H         -18.613707      -49.741703      -11.917787
 H         -18.566031      -51.466972      -11.529641
 H         -16.322857      -51.145672      -15.007703
 H         -16.510284      -52.882683      -14.931142
 H         -16.271196      -50.588955      -11.168152
 H         -16.474863      -49.787231      -12.803656
 H         -15.073500      -51.740444      -13.029544
 H         -16.406143      -52.799538      -12.444695
