20
 generated by VMD
 C         -60.719810     -153.863480      -51.355713
 N         -61.396431     -154.374268      -52.204853
 H         -57.548737     -153.763245      -52.538605
 H         -60.048767     -153.361588      -50.675270
 C         -56.796833     -153.494202      -51.807659
 C         -56.845852     -153.893372      -50.380039
 C         -55.781227     -152.513672      -52.196739
 C         -55.426422     -154.032974      -49.740089
 C         -54.385136     -152.799850      -51.616505
 C         -54.498966     -152.909943      -50.015392
 H         -57.364708     -154.898346      -50.328243
 H         -57.587528     -153.127747      -49.958408
 H         -55.747219     -152.418655      -53.286655
 H         -56.093517     -151.562149      -51.780148
 H         -54.982738     -154.924835      -50.117691
 H         -55.704048     -154.089661      -48.680435
 H         -53.608135     -152.139221      -51.848206
 H         -53.929478     -153.829468      -52.032181
 H         -53.460766     -152.941116      -49.483231
 H         -55.003204     -151.977905      -49.703030
