20
 generated by VMD
 C         -46.717613     -124.728279      -37.724991
 N         -46.911568     -124.511406      -36.619312
 H         -44.868423     -122.609795      -37.890759
 H         -46.337143     -124.637291      -38.733021
 C         -44.791309     -122.361115      -38.891579
 C         -43.503986     -122.258347      -39.560184
 C         -45.900475     -121.456383      -39.423222
 C         -43.737976     -122.521362      -41.066769
 C         -46.064083     -121.790047      -40.888290
 C         -44.752029     -121.612030      -41.619244
 H         -42.906349     -123.010071      -38.963196
 H         -42.942886     -121.245186      -39.410683
 H         -46.911175     -121.539627      -38.829308
 H         -45.556690     -120.426270      -39.363483
 H         -44.227264     -123.560005      -41.036343
 H         -42.879295     -122.372276      -41.685207
 H         -46.796223     -121.132690      -41.356663
 H         -46.444538     -122.756340      -40.937428
 H         -44.856319     -121.889717      -42.659325
 H         -44.353397     -120.568214      -41.510616
