20
 generated by VMD
 C         -12.644451      -30.148016       -7.727438
 N         -13.641150      -29.663010       -7.822596
 H         -11.437591      -30.311296       -4.941575
 H         -10.267011      -30.636534       -3.635734
 C         -10.783574      -31.036732       -4.432927
 C          -9.715358      -31.465633       -5.444317
 C         -11.603687      -32.186520       -4.022441
 C          -8.868010      -32.644932       -4.884307
 C         -10.830201      -33.312389       -3.335510
 C          -9.778281      -33.780087       -4.292163
 H          -9.006429      -30.657877       -5.660140
 H         -10.182161      -31.683895       -6.449385
 H         -12.318954      -31.856173       -3.273999
 H         -12.173734      -32.535057       -4.866274
 H          -8.174414      -32.333523       -4.104969
 H          -8.208690      -33.027069       -5.650203
 H         -11.531973      -34.134880       -3.094633
 H         -10.505884      -32.942627       -2.320367
 H          -9.145104      -34.464939       -3.788756
 H         -10.220022      -34.352711       -5.068893
