20
 generated by VMD
 C         -50.161324     -145.146622      -44.760189
 N         -49.564331     -144.265549      -44.350788
 H         -52.723343     -143.020340      -45.947731
 H         -50.858257     -145.915863      -45.029545
 C         -53.281445     -142.649536      -46.804523
 C         -52.494698     -142.551117      -47.993267
 C         -54.518238     -141.872711      -46.753971
 C         -53.342743     -142.830185      -49.180519
 C         -55.471134     -142.129669      -47.968670
 C         -54.568169     -142.010941      -49.293301
 H         -51.647839     -143.230942      -47.944172
 H         -52.020039     -141.552948      -47.776020
 H         -55.166702     -142.138672      -45.854145
 H         -54.462925     -140.696915      -46.703598
 H         -53.628574     -143.980667      -49.112915
 H         -52.774635     -142.705643      -50.177006
 H         -56.233746     -141.324554      -47.958324
 H         -55.903431     -143.168518      -47.849003
 H         -55.193039     -142.187653      -50.220631
 H         -54.204998     -140.868530      -49.291573
