20
 generated by VMD
 C         -47.741947     -136.687515      -46.029877
 N         -47.108078     -136.464783      -46.914913
 H         -50.499237     -136.080872      -45.362335
 H         -48.598808     -136.956299      -45.412067
 C         -51.135254     -136.936325      -45.057125
 C         -51.517693     -137.810974      -46.109947
 C         -51.973244     -136.633514      -43.786774
 C         -52.068451     -139.081146      -45.533527
 C         -52.458340     -137.997498      -43.305702
 C         -53.120502     -138.775970      -44.448559
 H         -50.657932     -137.992966      -46.844250
 H         -52.207077     -137.314041      -46.712345
 H         -51.294857     -136.152939      -43.060833
 H         -52.848862     -135.967697      -44.016960
 H         -51.264183     -139.632111      -45.000004
 H         -52.453373     -139.580322      -46.409550
 H         -53.404434     -137.677002      -42.696304
 H         -51.730995     -138.655685      -42.805836
 H         -53.442448     -139.734818      -44.112064
 H         -53.931957     -138.232574      -44.920277
