20
 generated by VMD
 C         -59.752254     -157.339600      -56.882965
 N         -60.807983     -157.012253      -57.022934
 H         -59.614338     -157.296295      -53.300087
 H         -58.711094     -157.549835      -56.726414
 C         -59.174034     -157.846695      -52.472603
 C         -57.870705     -157.305069      -51.904572
 C         -59.458191     -159.317734      -52.501213
 C         -57.371273     -158.096756      -50.773628
 C         -58.685974     -160.116455      -51.465786
 C         -57.318542     -159.519806      -51.145611
 H         -58.041508     -156.313461      -51.558041
 H         -57.212280     -157.173889      -52.804157
 H         -60.536785     -159.668411      -52.334892
 H         -59.106567     -159.720901      -53.499542
 H         -57.981373     -157.913071      -49.807022
 H         -56.472485     -157.700165      -50.419472
 H         -58.687706     -161.170670      -51.592155
 H         -59.238789     -160.004272      -50.531143
 H         -57.042896     -159.942581      -50.089542
 H         -56.535721     -159.636276      -51.840206
