20
 generated by VMD
 C         -62.693649     -174.521820      -54.773151
 N         -63.372608     -174.121628      -55.572803
 H         -63.484032     -172.968994      -57.780388
 H         -62.035625     -174.807938      -53.969723
 C         -63.488148     -172.061951      -58.330299
 C         -63.605320     -170.783096      -57.508678
 C         -64.186287     -172.043289      -59.673328
 C         -63.773605     -169.505951      -58.362099
 C         -64.426262     -170.702759      -60.267403
 C         -64.789864     -169.532211      -59.440979
 H         -62.728931     -170.600342      -56.887856
 H         -64.509811     -170.887772      -56.798813
 H         -63.705002     -172.720215      -60.437057
 H         -65.229332     -172.510818      -59.390076
 H         -62.811363     -169.312408      -58.807701
 H         -64.072914     -168.699158      -57.623264
 H         -65.297333     -170.818085      -60.929504
 H         -63.652218     -170.378647      -60.908592
 H         -64.848488     -168.669235      -60.044250
 H         -65.772240     -169.657669      -58.982876
