20
 generated by VMD
 C          -3.099790      -17.599451        2.619495
 N          -3.008300      -17.985004        1.572906
 H          -5.316238      -19.345873        0.993583
 H          -5.436442      -20.462936       -0.404654
 C          -5.809831      -19.509953        0.014893
 C          -5.583423      -18.187531       -0.726923
 C          -7.378237      -19.621782        0.267998
 C          -6.339040      -17.982353       -2.037196
 C          -8.108447      -19.448240       -1.103141
 C          -7.843026      -18.068228       -1.780112
 H          -4.491653      -18.183504       -0.957643
 H          -5.781331      -17.308609       -0.203382
 H          -7.671249      -20.571568        0.738424
 H          -7.706830      -18.870939        0.988215
 H          -5.995916      -18.786217       -2.750393
 H          -6.049941      -17.056715       -2.544052
 H          -9.226047      -19.555618       -1.052431
 H          -7.742273      -20.275576       -1.741979
 H          -8.337539      -18.006330       -2.745913
 H          -8.184571      -17.243931       -1.117279
