20
 generated by VMD
 C         -36.666977      -98.269630      -26.185675
 N         -37.499153      -98.360748      -26.981739
 H         -36.528118      -96.135254      -28.855616
 H         -35.733521      -98.165115      -25.556997
 C         -35.636234      -95.959267      -29.380571
 C         -35.519825      -96.841339      -30.740646
 C         -34.437725      -95.174789      -29.084379
 C         -35.110001      -95.999413      -31.929972
 C         -33.986118      -94.334961      -30.244228
 C         -33.880421      -95.203293      -31.529671
 H         -36.354176      -97.529556      -30.846380
 H         -34.649166      -97.555962      -30.587330
 H         -34.654762      -94.531288      -28.195724
 H         -33.645489      -95.929535      -28.752918
 H         -35.899731      -95.297783      -32.287758
 H         -34.933182      -96.758438      -32.737236
 H         -32.950333      -93.860756      -30.142998
 H         -34.675220      -93.559158      -30.463791
 H         -33.810795      -94.570084      -32.435955
 H         -32.992382      -95.899055      -31.570211
