20
 generated by VMD
 C         -39.795288     -101.011192      -31.189442
 N         -40.460075     -100.064186      -31.363539
 H         -37.487370     -103.341850      -31.393442
 H         -39.321461     -102.024399      -31.260485
 C         -36.917572     -102.338959      -31.439945
 C         -36.419258     -101.743126      -32.721863
 C         -36.372658     -101.911064      -30.078239
 C         -35.853233     -100.359398      -32.596695
 C         -35.970634     -100.486473      -29.919365
 C         -35.250847      -99.880989      -31.264256
 H         -37.250111     -101.828758      -33.468315
 H         -35.611496     -102.393150      -33.050701
 H         -37.110748     -102.190727      -29.356750
 H         -35.542511     -102.658150      -29.893866
 H         -36.555244      -99.527122      -32.946976
 H         -34.973492     -100.211823      -33.226460
 H         -35.314499     -100.517120      -29.049179
 H         -36.844810      -99.900444      -29.669331
 H         -35.324425      -98.745705      -31.249640
 H         -34.163628     -100.179047      -31.247896
