20
 generated by VMD
 C         -31.816429      -76.057808      -24.200180
 N         -31.333746      -76.476128      -25.204260
 H         -29.614321      -77.880440      -22.594547
 H         -32.579552      -75.773727      -23.525858
 C         -28.572147      -77.874031      -22.228264
 C         -27.674278      -78.164474      -23.327843
 C         -28.290386      -78.366791      -20.765648
 C         -26.229086      -77.930084      -22.854788
 C         -26.881557      -78.101410      -20.345695
 C         -25.811558      -78.461815      -21.415676
 H         -27.980940      -77.571770      -24.182669
 H         -27.759365      -79.250839      -23.600422
 H         -29.138006      -77.922523      -20.197245
 H         -28.334568      -79.424988      -20.845753
 H         -26.011003      -76.873199      -22.802488
 H         -25.530363      -78.195221      -23.676292
 H         -26.640718      -78.538055      -19.296556
 H         -26.686150      -76.922310      -20.317701
 H         -24.852402      -77.983475      -21.197140
 H         -25.600903      -79.561836      -21.419727
