20
 generated by VMD
 C         -22.511194      -55.255959      -17.223745
 N         -23.082760      -54.599216      -18.070438
 H         -20.002188      -56.019611      -14.205099
 H         -22.464027      -56.017807      -16.557896
 C         -20.189072      -57.087360      -14.254159
 C         -20.759745      -57.647964      -12.964761
 C         -19.196262      -57.811993      -15.192726
 C         -20.952053      -59.176155      -13.140912
 C         -19.415295      -59.304249      -15.184305
 C         -19.729456      -59.820946      -13.762830
 H         -21.756115      -57.175762      -12.722034
 H         -20.007263      -57.432667      -12.228291
 H         -19.169773      -57.302624      -16.132641
 H         -18.198248      -57.798199      -14.774516
 H         -21.831923      -59.436218      -13.720178
 H         -21.110760      -59.582165      -12.164500
 H         -18.462263      -59.834812      -15.383344
 H         -20.196123      -59.564747      -15.902081
 H         -19.835497      -60.951508      -13.898052
 H         -18.928864      -59.648186      -13.057029
