20
 generated by VMD
 C         -49.693787     -127.323692      -39.999592
 N         -49.134159     -126.738564      -39.152153
 H         -47.001911     -126.846397      -41.841053
 H         -50.222912     -127.886620      -40.782463
 C         -46.310196     -126.030113      -41.456909
 C         -45.314468     -126.478340      -40.513294
 C         -46.825352     -124.675217      -41.297787
 C         -44.054733     -125.572365      -40.511368
 C         -45.575294     -123.662323      -41.413960
 C         -44.401855     -124.080818      -40.493336
 H         -44.949600     -127.564125      -40.734615
 H         -45.850414     -126.534775      -39.547382
 H         -47.398575     -124.468025      -42.204578
 H         -47.310070     -124.670975      -40.366749
 H         -43.417473     -125.814171      -41.381199
 H         -43.506050     -125.825455      -39.613983
 H         -46.109810     -122.765900      -41.095139
 H         -45.316975     -123.666611      -42.434891
 H         -43.541782     -123.475311      -40.898094
 H         -44.524426     -123.701286      -39.464577
