20
 generated by VMD
 C         -70.360092     -196.691467      -65.258049
 N         -69.611038     -197.331436      -65.867020
 H         -74.106033     -195.960983      -65.253128
 H         -70.891151     -195.943298      -64.654022
 C         -73.778427     -195.423859      -66.107819
 C         -73.133118     -194.087921      -66.071205
 C         -74.285263     -195.964676      -67.480774
 C         -72.453995     -193.941132      -67.369423
 C         -74.590721     -194.725266      -68.398117
 C         -73.404747     -193.659271      -68.559494
 H         -72.414864     -194.231705      -65.322693
 H         -73.903107     -193.238098      -66.044792
 H         -73.479599     -196.670105      -68.023033
 H         -75.224091     -196.581238      -67.380539
 H         -71.954529     -194.925674      -67.589188
 H         -71.701355     -193.152878      -67.341934
 H         -75.554695     -194.274353      -68.094383
 H         -74.709595     -194.992966      -69.448570
 H         -72.945831     -193.839325      -69.601921
 H         -73.781342     -192.701416      -68.591484
