20
 generated by VMD
 C         -58.507511     -160.051071      -57.050449
 N         -58.548115     -159.917725      -58.146896
 H         -58.690300     -162.573502      -54.921093
 H         -58.561935     -160.157074      -55.979263
 C         -59.531414     -162.591034      -54.257442
 C         -59.284885     -162.718201      -52.780113
 C         -60.944595     -162.815292      -54.706051
 C         -60.236797     -162.042313      -51.764339
 C         -61.965302     -162.041138      -53.783470
 C         -61.653915     -162.416031      -52.279915
 H         -58.262089     -162.415741      -52.565857
 H         -59.332550     -163.809219      -52.585873
 H         -61.111351     -162.523590      -55.813087
 H         -61.087856     -163.834961      -54.471394
 H         -60.207043     -160.927414      -51.642559
 H         -60.180752     -162.461853      -50.668777
 H         -63.035305     -162.103775      -54.147747
 H         -61.747559     -160.943008      -54.090481
 H         -62.413231     -161.865860      -51.637119
 H         -61.817654     -163.482986      -52.056358
