20
 generated by VMD
 C         -19.733355      -59.914982      -17.027176
 N         -18.857096      -60.665070      -16.895437
 H         -23.039646      -60.779640      -17.320810
 H         -20.503035      -59.095165      -17.376255
 C         -23.208519      -61.862236      -17.150581
 C         -23.959597      -62.729736      -18.077251
 C         -23.405493      -62.309589      -15.705897
 C         -23.794430      -64.330551      -17.807585
 C         -23.149097      -63.790249      -15.452325
 C         -24.147249      -64.525909      -16.347872
 H         -23.576141      -62.571739      -19.114750
 H         -25.099392      -62.574249      -18.008701
 H         -22.703951      -61.691532      -15.119116
 H         -24.460213      -62.012367      -15.334517
 H         -22.812983      -64.655319      -18.116957
 H         -24.514147      -64.922523      -18.471830
 H         -23.282537      -64.056587      -14.415119
 H         -22.103889      -64.078743      -15.589322
 H         -24.276810      -65.620781      -16.102304
 H         -25.230366      -64.147789      -16.198893
