20
 generated by VMD
 C         -61.484741     -155.086700      -53.549950
 N         -62.134918     -155.438202      -54.467518
 H         -58.331348     -154.959198      -52.233673
 H         -60.925671     -154.549362      -52.772362
 C         -57.414272     -155.004608      -51.624081
 C         -57.397503     -154.350891      -50.229218
 C         -56.177166     -154.967911      -52.472870
 C         -55.981789     -154.822739      -49.460464
 C         -54.952087     -155.392029      -51.678638
 C         -54.824181     -154.652237      -50.338070
 H         -58.271576     -154.701843      -49.794827
 H         -57.346447     -153.285675      -50.214386
 H         -56.272190     -155.704483      -53.302303
 H         -55.959908     -153.958237      -52.960320
 H         -56.068394     -155.888626      -49.323200
 H         -55.939068     -154.178467      -48.633526
 H         -54.118526     -155.244034      -52.287216
 H         -55.093578     -156.484375      -51.446644
 H         -53.812496     -154.956696      -49.899429
 H         -54.719116     -153.514297      -50.415821
