20
 generated by VMD
 C         -57.773159     -164.914490      -56.527809
 N         -57.254524     -164.173431      -57.198402
 H         -59.961613     -164.769501      -54.194180
 H         -58.208229     -165.649841      -55.866714
 C         -60.995861     -164.964874      -54.650024
 C         -61.922916     -165.804184      -53.936687
 C         -61.547348     -164.174454      -55.799824
 C         -63.446064     -165.738907      -54.176750
 C         -63.022633     -163.856140      -55.811584
 C         -63.739826     -165.162598      -55.563354
 H         -61.794891     -165.613434      -52.905655
 H         -61.554634     -166.833527      -54.103001
 H         -60.914581     -163.219742      -55.729763
 H         -61.121117     -164.755249      -56.595028
 H         -63.960209     -165.061768      -53.408558
 H         -63.988403     -166.725311      -54.066654
 H         -63.219887     -163.439606      -56.881210
 H         -63.248447     -163.102997      -55.098366
 H         -64.715355     -165.111160      -55.859718
 H         -63.391796     -165.856186      -56.304203
