20
 generated by VMD
 C          -5.816138      -21.849585        1.885582
 N          -6.569118      -22.652037        2.096103
 H          -5.189209      -19.221127       -0.896551
 H          -6.376792      -20.229000        0.018817
 C          -6.090764      -19.784050       -1.003660
 C          -5.716622      -20.941357       -1.901262
 C          -7.162858      -18.975496       -1.726778
 C          -6.780246      -21.879417       -2.328175
 C          -8.318047      -19.834299       -2.188218
 C          -7.955758      -21.118631       -2.926217
 H          -4.907835      -21.504528       -1.362301
 H          -5.142801      -20.621016       -2.732815
 H          -7.436467      -18.205236       -1.065551
 H          -6.655018      -18.590130       -2.566631
 H          -7.162409      -22.361263       -1.425883
 H          -6.360754      -22.593781       -3.030497
 H          -8.971612      -19.195623       -2.800533
 H          -8.812995      -20.190115       -1.261866
 H          -8.823087      -21.774408       -3.072400
 H          -7.647089      -20.856936       -3.948656
