20
 generated by VMD
 C         -10.660766      -36.544682       -8.782040
 N         -10.786264      -36.560894       -7.666300
 H         -13.413261      -37.339367       -7.148020
 H         -14.515750      -38.258278       -6.191756
 C         -13.988935      -38.250328       -7.189219
 C         -13.046346      -39.403774       -7.382889
 C         -15.021408      -38.236130       -8.224043
 C         -13.917144      -40.668282       -7.159284
 C         -15.829391      -39.505039       -8.247796
 C         -15.020215      -40.788628       -8.159554
 H         -12.315386      -39.383675       -6.593017
 H         -12.596069      -39.428040       -8.376216
 H         -15.695164      -37.407242       -7.967267
 H         -14.581749      -38.094772       -9.288920
 H         -14.376080      -40.606453       -6.173684
 H         -13.200141      -41.554390       -7.215280
 H         -16.410427      -39.472248       -9.124187
 H         -16.519485      -39.385986       -7.346092
 H         -15.623219      -41.678986       -7.991624
 H         -14.557759      -40.908962       -9.181937
