20
 generated by VMD
 C         -73.138344     -199.815994      -65.635712
 N         -73.909836     -200.557480      -65.191811
 H         -71.437462     -196.884399      -67.066856
 H         -72.428543     -199.254822      -66.184143
 C         -72.170212     -196.387894      -67.711823
 C         -73.279800     -195.621597      -67.131561
 C         -72.357697     -197.083130      -69.052696
 C         -74.251839     -195.095215      -68.251976
 C         -73.866348     -197.307175      -69.320847
 C         -74.894997     -196.283569      -69.024925
 H         -72.888039     -194.654160      -66.573448
 H         -73.676720     -196.336014      -66.459877
 H         -71.934464     -196.366791      -69.782211
 H         -71.775864     -198.030289      -69.008171
 H         -73.818703     -194.255157      -68.822678
 H         -75.083679     -194.616211      -67.709755
 H         -74.196953     -198.265350      -68.847366
 H         -73.916656     -197.551773      -70.395920
 H         -75.344337     -195.965546      -69.858063
 H         -75.612877     -196.799744      -68.361092
