20
 generated by VMD
 C         -47.656357     -125.615440      -39.041733
 N         -48.170372     -126.549866      -38.525318
 H         -45.616409     -123.083252      -37.898079
 H         -47.258747     -124.654457      -39.228535
 C         -45.392952     -123.096512      -38.965843
 C         -44.562080     -124.244537      -39.395554
 C         -45.661243     -121.907944      -39.827271
 C         -44.672321     -124.545036      -40.951038
 C         -45.716232     -122.291161      -41.334171
 C         -44.483990     -123.245003      -41.682770
 H         -44.750927     -125.222664      -39.019966
 H         -43.547340     -123.988686      -39.008568
 H         -46.710266     -121.548729      -39.615856
 H         -44.975368     -121.134544      -39.655579
 H         -45.684799     -124.804100      -41.319817
 H         -43.935528     -125.284035      -41.269676
 H         -45.522160     -121.348358      -41.823685
 H         -46.681656     -122.680191      -41.677094
 H         -44.655647     -123.485847      -42.717041
 H         -43.465229     -122.789238      -41.613468
