20
 generated by VMD
 C         -57.777744     -150.688171      -48.630901
 N         -58.216862     -151.769714      -48.563122
 H         -55.003063     -149.239059      -47.453857
 H         -57.180061     -149.741852      -48.636902
 C         -54.675503     -148.964157      -48.411011
 C         -53.849514     -149.926224      -49.297157
 C         -54.686340     -147.503830      -48.794868
 C         -54.313789     -149.593948      -50.815887
 C         -55.080841     -147.272507      -50.311501
 C         -54.188023     -148.115997      -51.312500
 H         -54.072792     -150.890091      -48.914509
 H         -52.806690     -149.665619      -49.254822
 H         -55.648178     -147.026566      -48.389400
 H         -53.761826     -146.994919      -48.497215
 H         -55.358688     -149.895905      -50.812874
 H         -53.791370     -150.245209      -51.511612
 H         -55.082687     -146.152008      -50.671795
 H         -56.111076     -147.506134      -50.503506
 H         -54.450256     -147.866074      -52.403934
 H         -53.204533     -147.642914      -51.254025
