20
 generated by VMD
 C         -41.026802     -104.113777      -35.874996
 N         -41.901897     -104.862022      -36.076752
 H         -38.409801     -103.989250      -33.623283
 H         -40.489017     -103.235794      -35.693890
 C         -38.230652     -104.793388      -32.893860
 C         -36.863735     -105.244614      -32.364597
 C         -39.242943     -105.954094      -33.074326
 C         -37.046425     -106.227669      -31.274597
 C         -39.252594     -107.093590      -32.026634
 C         -37.809765     -107.480377      -31.559042
 H         -36.323681     -104.433220      -32.016239
 H         -36.240780     -105.696838      -33.129398
 H         -40.233822     -105.527451      -33.175892
 H         -38.980602     -106.456566      -34.069431
 H         -37.562046     -105.660782      -30.407166
 H         -36.028835     -106.676552      -31.009695
 H         -39.588409     -108.013275      -32.385929
 H         -39.889935     -106.908669      -31.108700
 H         -37.764965     -108.192169      -30.665321
 H         -37.353088     -107.956161      -32.423668
