20
 generated by VMD
 C         -50.743156     -129.812744      -45.236515
 N         -51.033886     -129.434174      -44.214748
 H         -49.206718     -129.095490      -42.311707
 H         -50.429241     -129.966797      -46.230843
 C         -48.236431     -129.315567      -41.840446
 C         -47.996632     -130.708542      -41.351105
 C         -47.436916     -128.169128      -41.392998
 C         -46.477409     -130.996262      -41.319553
 C         -45.905155     -128.453323      -41.235886
 C         -45.695232     -129.843246      -40.592609
 H         -48.600105     -131.329712      -41.987473
 H         -48.448067     -130.794281      -40.266182
 H         -47.562847     -127.403137      -42.255630
 H         -47.951931     -127.791824      -40.566326
 H         -46.243713     -131.237289      -42.361771
 H         -46.262081     -131.980255      -40.834564
 H         -45.548882     -127.648125      -40.615322
 H         -45.556602     -128.339310      -42.206417
 H         -44.585060     -130.015350      -40.568157
 H         -46.127052     -129.864059      -39.565086
