20
 generated by VMD
 C         -61.547630     -155.963104      -54.695599
 N         -60.921673     -155.363449      -53.861443
 H         -58.906895     -154.937607      -51.891438
 H         -62.201633     -156.626144      -55.231133
 C         -57.885357     -155.156357      -51.565380
 C         -57.470242     -154.509125      -50.322449
 C         -56.850624     -155.637695      -52.557365
 C         -56.210987     -155.066666      -49.684502
 C         -55.593204     -156.225754      -51.831017
 C         -55.104870     -155.245132      -50.661236
 H         -58.349964     -154.586853      -49.614979
 H         -57.352215     -153.332001      -50.471767
 H         -57.344059     -156.258820      -53.236118
 H         -56.618771     -154.759232      -53.193222
 H         -56.438538     -155.965332      -49.079758
 H         -55.874840     -154.354507      -48.949188
 H         -54.760262     -156.505508      -52.455551
 H         -56.032341     -157.183136      -51.339584
 H         -54.314163     -155.808182      -50.125980
 H         -54.757278     -154.275314      -50.897743
