20
 generated by VMD
 C         -41.099411     -102.450775      -35.136074
 N         -41.560844     -103.124611      -35.963081
 H         -39.676594     -104.357346      -33.084991
 H         -40.994057     -101.789017      -34.312752
 C         -38.890285     -104.849106      -32.511665
 C         -37.344582     -104.375786      -32.961288
 C         -38.803722     -106.170258      -31.844683
 C         -36.386959     -104.396851      -31.737165
 C         -37.764671     -106.233887      -30.754419
 C         -36.392849     -105.760269      -31.102087
 H         -37.524364     -103.411995      -33.348820
 H         -36.996304     -105.048988      -33.725048
 H         -39.742271     -106.428818      -31.514923
 H         -38.518707     -106.919876      -32.642063
 H         -36.755184     -103.695076      -31.005953
 H         -35.391933     -104.236099      -32.114273
 H         -37.897816     -107.199036      -30.330061
 H         -37.932529     -105.578194      -29.909725
 H         -35.962597     -105.605087      -30.056417
 H         -35.753979     -106.483658      -31.568113
