20
 generated by VMD
 C         -56.349300     -149.647186      -46.283005
 N         -56.564255     -150.589783      -45.594501
 H         -53.556664     -147.965347      -47.735561
 H         -55.964439     -148.816895      -46.901310
 C         -53.801018     -147.416290      -48.693508
 C         -52.995739     -147.659317      -49.898106
 C         -54.605404     -146.171997      -48.560631
 C         -53.797493     -147.345718      -51.126225
 C         -55.293877     -145.869064      -49.903484
 C         -54.369530     -146.032654      -51.014771
 H         -52.619682     -148.761337      -50.024086
 H         -52.203537     -146.973633      -49.876812
 H         -55.538067     -146.335922      -47.907078
 H         -53.970318     -145.350815      -48.206264
 H         -54.449024     -148.190750      -51.241104
 H         -52.994484     -147.455917      -51.896221
 H         -55.567551     -144.781281      -49.954021
 H         -56.253883     -146.336914      -50.129395
 H         -54.983086     -145.871613      -51.891956
 H         -53.607742     -145.251633      -51.048931
