20
 generated by VMD
 C         -40.449436      -99.807571      -29.211376
 N         -39.733208     -100.138367      -28.349504
 H         -37.128410      -99.782402      -30.709871
 H         -40.975204      -99.469559      -30.132542
 C         -36.334595      -98.984726      -30.782911
 C         -35.883064      -98.990234      -32.177811
 C         -35.457779      -98.662636      -29.527029
 C         -34.681252      -98.099144      -32.488247
 C         -34.340508      -97.785271      -29.972363
 C         -33.643379      -98.098984      -31.366419
 H         -36.776211      -98.824478      -32.703796
 H         -35.612793     -100.061371      -32.401867
 H         -35.980778      -98.180771      -28.748962
 H         -35.113964      -99.638603      -29.136648
 H         -35.058235      -97.050529      -32.766262
 H         -34.187347      -98.360695      -33.460056
 H         -33.535725      -97.730888      -29.228437
 H         -34.905731      -96.772156      -30.180124
 H         -32.719135      -97.401520      -31.546116
 H         -33.264416      -99.087692      -31.326403
