20
 generated by VMD
 C         -72.642693     -199.094147      -65.589836
 N         -72.321487     -199.846527      -64.761681
 H         -71.126846     -196.159714      -67.288773
 H         -73.138687     -198.622177      -66.443565
 C         -72.084114     -195.796432      -67.683823
 C         -72.860680     -194.546158      -67.220345
 C         -72.630142     -196.315536      -69.040688
 C         -74.188263     -194.348190      -67.975204
 C         -74.029266     -196.722794      -68.852005
 C         -74.855629     -195.766357      -68.024529
 H         -72.348679     -193.520569      -67.278717
 H         -72.944267     -194.715027      -66.112381
 H         -72.441895     -195.689850      -69.946991
 H         -72.020714     -197.205612      -69.299995
 H         -74.102295     -193.842163      -68.936562
 H         -74.819633     -193.791229      -67.222542
 H         -74.067604     -197.707886      -68.301941
 H         -74.480087     -196.877808      -69.813080
 H         -75.925385     -195.640961      -68.409409
 H         -75.041054     -196.175247      -67.096123
