20
 generated by VMD
 C         -79.439339     -206.130783      -73.221123
 N         -80.454109     -206.367004      -72.724472
 H         -77.815033     -204.801010      -71.039902
 H         -78.439507     -205.741928      -73.542152
 C         -76.861839     -205.118225      -70.656952
 C         -75.689629     -204.427689      -71.280457
 C         -76.620964     -206.585052      -70.175652
 C         -74.743217     -204.246323      -70.135773
 C         -75.491264     -206.603989      -69.217445
 C         -74.314232     -205.616562      -69.513283
 H         -75.981140     -203.403412      -71.520401
 H         -75.234344     -204.930496      -72.161438
 H         -77.418701     -206.902954      -69.515831
 H         -76.492683     -207.173141      -71.080627
 H         -75.124832     -203.590988      -69.270447
 H         -73.794205     -203.699997      -70.498260
 H         -75.133575     -207.678375      -69.040131
 H         -75.913155     -206.305038      -68.310440
 H         -73.492111     -205.404587      -68.803665
 H         -73.838974     -206.230408      -70.270378
