20
 generated by VMD
 C         -39.361561      -99.065430      -28.133736
 N         -38.711983      -99.950081      -27.755713
 H         -37.443550      -97.978798      -30.575878
 H         -40.017982      -98.231728      -28.299541
 C         -36.400543      -98.090790      -30.676579
 C         -35.690315      -98.306259      -32.005714
 C         -35.562237      -97.648010      -29.619049
 C         -34.456417      -97.530334      -32.366646
 C         -34.415176      -96.655197      -30.063242
 C         -33.589958      -97.391907      -31.028086
 H         -36.492977      -98.300179      -32.785061
 H         -35.466541      -99.328568      -31.871187
 H         -36.197498      -97.080803      -28.917122
 H         -35.254360      -98.473122      -29.060028
 H         -34.805061      -96.591415      -32.686817
 H         -33.886135      -98.125656      -33.155472
 H         -33.855453      -96.339653      -29.199490
 H         -34.742264      -95.790619      -30.589600
 H         -32.768982      -96.767853      -31.200752
 H         -33.206936      -98.458443      -30.772947
