20
 generated by VMD
 C         -69.823975     -184.827621      -66.551056
 N         -68.992645     -184.518768      -67.339874
 H         -69.780739     -183.262955      -63.073269
 H         -70.488022     -185.156525      -65.823875
 C         -69.105392     -183.496857      -62.273712
 C         -69.504898     -184.480164      -61.261326
 C         -68.110176     -182.424820      -61.940784
 C         -68.266541     -185.183212      -60.808647
 C         -66.890221     -182.982452      -61.279427
 C         -67.277771     -184.070816      -60.275845
 H         -70.231010     -185.221756      -61.729752
 H         -69.911018     -183.952133      -60.429260
 H         -67.760010     -181.961563      -62.841839
 H         -68.687134     -181.650482      -61.358696
 H         -67.719498     -185.658249      -61.625008
 H         -68.422890     -185.944183      -60.016346
 H         -66.268669     -182.147629      -60.935581
 H         -66.259308     -183.476105      -62.098671
 H         -66.346573     -184.641937      -60.014072
 H         -67.622269     -183.729828      -59.353783
