20
 generated by VMD
 C         -56.288609     -149.600525      -46.203251
 N         -56.492714     -150.563370      -45.556679
 H         -53.852337     -148.028564      -47.755398
 H         -56.292835     -148.635345      -46.768181
 C         -53.922459     -147.451813      -48.651764
 C         -53.001221     -147.632858      -49.840424
 C         -54.599560     -146.136353      -48.531250
 C         -53.693504     -147.317520      -51.222157
 C         -55.327042     -145.869095      -49.847401
 C         -54.335636     -145.863586      -51.137112
 H         -52.782536     -148.661255      -49.966446
 H         -51.978886     -147.076523      -49.739296
 H         -55.096203     -146.085144      -47.595879
 H         -53.853313     -145.342682      -48.386581
 H         -54.581600     -148.010712      -51.299160
 H         -53.077785     -147.484268      -52.093510
 H         -55.955601     -144.959839      -49.713467
 H         -55.930214     -146.797180      -50.029972
 H         -54.861275     -145.571732      -52.080654
 H         -53.503635     -145.154236      -50.999043
