20
 generated by VMD
 C         -78.744232     -207.866592      -76.660095
 N         -78.614532     -207.939117      -75.539177
 H         -79.417366     -209.959869      -73.331100
 H         -79.066658     -207.896866      -77.726974
 C         -78.761017     -210.174149      -72.435608
 C         -77.394981     -209.571487      -72.257423
 C         -79.083130     -211.347092      -71.459084
 C         -77.149834     -209.134506      -70.857536
 C         -78.596703     -211.093140      -70.089745
 C         -77.315483     -210.408096      -70.040237
 H         -77.443161     -208.659790      -72.824432
 H         -76.590782     -210.111481      -72.736183
 H         -80.198105     -211.590775      -71.411598
 H         -78.550598     -212.199417      -71.838226
 H         -77.836044     -208.338531      -70.504410
 H         -76.145935     -208.682800      -70.881348
 H         -78.492264     -211.981339      -69.506790
 H         -79.450935     -210.477463      -69.611572
 H         -77.273338     -210.016541      -69.034912
 H         -76.446335     -211.032928      -70.122108
