20
 generated by VMD
 C         -41.539013     -119.326149      -34.561245
 N         -41.088390     -119.845230      -35.485538
 H         -43.480518     -118.490173      -36.542011
 H         -42.019108     -119.089615      -33.633823
 C         -43.730053     -118.017548      -37.484425
 C         -42.979366     -118.114288      -38.794670
 C         -45.106339     -117.488899      -37.603237
 C         -43.796875     -118.555931      -39.942692
 C         -45.887238     -117.883789      -38.865772
 C         -45.063145     -117.810844      -40.186897
 H         -42.096794     -118.729698      -38.766029
 H         -42.617977     -117.086250      -38.927856
 H         -45.723278     -117.884315      -36.798370
 H         -45.071373     -116.315048      -37.405170
 H         -44.075520     -119.627739      -39.682987
 H         -43.300949     -118.634789      -40.940784
 H         -46.775826     -117.269096      -39.204670
 H         -46.255447     -118.936218      -38.802517
 H         -45.530849     -118.328705      -40.972820
 H         -44.911671     -116.751839      -40.544170
