20
 generated by VMD
 C         -31.360889      -78.045303      -26.383848
 N         -31.679279      -77.955009      -27.507021
 H         -29.380180      -79.342171      -24.143660
 H         -31.172628      -77.940643      -25.377161
 C         -29.079138      -80.027634      -23.394825
 C         -27.580452      -80.089577      -23.037134
 C         -29.932636      -81.115746      -22.899973
 C         -27.244968      -80.971382      -21.803345
 C         -29.469814      -81.848938      -21.592939
 C         -28.058771      -82.211090      -21.753992
 H         -27.055500      -79.167450      -22.812838
 H         -27.119411      -80.486725      -23.919729
 H         -30.972721      -80.698288      -22.642960
 H         -30.068699      -81.680267      -23.783915
 H         -27.476309      -80.272087      -20.985132
 H         -26.230577      -81.106827      -21.700020
 H         -30.033997      -82.737221      -21.504030
 H         -29.750204      -81.116501      -20.763807
 H         -27.907618      -82.863205      -20.874125
 H         -27.896589      -82.821793      -22.724758
