20
 generated by VMD
 C         -60.181347     -171.207291      -55.305977
 N         -59.359398     -171.925537      -55.045300
 H         -63.077705     -170.303284      -56.051373
 H         -60.954712     -170.457657      -55.464138
 C         -63.348110     -169.508575      -56.825012
 C         -62.375793     -168.516174      -57.539028
 C         -64.870667     -169.072266      -56.698708
 C         -62.984566     -167.867325      -58.765148
 C         -65.417831     -168.425903      -57.966427
 C         -64.424606     -167.521225      -58.516727
 H         -61.374687     -169.057266      -57.832741
 H         -62.073719     -167.785248      -56.803215
 H         -65.487999     -169.941330      -56.339870
 H         -64.796432     -168.538376      -55.782532
 H         -62.928558     -168.524460      -59.685017
 H         -62.396488     -166.877228      -59.021999
 H         -66.268295     -167.915176      -57.687798
 H         -65.857719     -169.060074      -58.672878
 H         -64.832306     -167.127914      -59.457531
 H         -64.362076     -166.591476      -57.937008
