20
 generated by VMD
 C         -68.542015     -185.462280      -66.687233
 N         -67.802078     -186.268814      -67.068459
 H         -69.637741     -183.659897      -63.946312
 H         -69.154457     -184.667236      -66.190903
 C         -69.565178     -184.506866      -63.178631
 C         -70.765442     -185.051559      -62.536610
 C         -68.305252     -185.390686      -63.151928
 C         -70.458023     -185.570450      -61.158154
 C         -67.987732     -186.127182      -61.774162
 C         -69.332985     -186.675201      -61.089851
 H         -71.142357     -185.912766      -63.120075
 H         -71.543983     -184.225632      -62.551201
 H         -68.423950     -186.043701      -64.015732
 H         -67.498291     -184.635208      -63.327114
 H         -71.317604     -186.096527      -60.677711
 H         -70.241417     -184.713531      -60.396385
 H         -67.541183     -185.454590      -61.031212
 H         -67.281509     -186.974869      -61.882965
 H         -69.618912     -187.504196      -61.686546
 H         -69.109306     -186.813431      -60.090271
