20
 generated by VMD
 C         -80.311668     -206.841873      -74.013054
 N         -80.562950     -206.633316      -75.149803
 H         -76.619385     -207.501205      -72.948387
 H         -80.157875     -207.223007      -72.995537
 C         -76.438866     -207.649231      -71.946045
 C         -75.382858     -206.796829      -71.425255
 C         -77.285736     -208.683121      -71.202118
 C         -75.464859     -206.632065      -69.928635
 C         -77.410263     -208.248611      -69.670242
 C         -76.012032     -207.858170      -69.141731
 H         -75.574753     -205.805054      -71.917007
 H         -74.304504     -206.986389      -71.633354
 H         -78.252922     -208.513824      -71.661301
 H         -76.955025     -209.686325      -71.355141
 H         -76.152649     -205.776749      -69.758324
 H         -74.491013     -206.498474      -69.488327
 H         -77.787949     -209.071823      -69.172371
 H         -78.143524     -207.408905      -69.592819
 H         -75.967842     -207.626953      -68.012100
 H         -75.254326     -208.720184      -69.309006
