20
 generated by VMD
 C         -78.650970     -209.952606      -76.615189
 N         -77.669930     -210.219345      -77.129944
 H         -79.674683     -211.624191      -74.366859
 H         -79.570412     -209.764847      -76.152344
 C         -79.553604     -212.207870      -73.463814
 C         -78.221504     -212.344131      -72.792206
 C         -80.684906     -213.175720      -73.158661
 C         -78.330139     -212.757492      -71.295746
 C         -80.684944     -213.338364      -71.610207
 C         -79.421440     -213.885712      -71.026566
 H         -77.619797     -211.457062      -72.828293
 H         -77.658318     -213.141403      -73.318886
 H         -81.661575     -212.699097      -73.419281
 H         -80.620834     -214.092819      -73.649696
 H         -78.675812     -211.887878      -70.706306
 H         -77.285217     -212.857529      -70.941322
 H         -81.620895     -214.031158      -71.518982
 H         -81.117500     -212.505493      -71.153763
 H         -79.512932     -214.239532      -69.953461
 H         -79.291603     -214.976379      -71.468857
