20
 generated by VMD
 C         -12.325312      -27.515152       -4.621280
 N         -13.139963      -28.182308       -4.997208
 H         -10.749216      -30.373419       -2.813908
 H         -11.032798      -28.852509       -3.657993
 C         -10.236195      -29.633099       -3.347380
 C          -9.629255      -30.287477       -4.560596
 C          -9.149816      -29.043619       -2.424063
 C          -8.628110      -29.415194       -5.278363
 C          -8.362804      -28.035280       -3.247225
 C          -7.667648      -28.810457       -4.367454
 H         -10.417862      -30.384487       -5.248858
 H          -9.109647      -31.261885       -4.285073
 H          -9.693000      -28.485605       -1.623535
 H          -8.595283      -29.871544       -1.929306
 H          -9.210998      -28.641895       -5.760137
 H          -8.113317      -30.076265       -5.942635
 H          -7.566693      -27.618782       -2.696249
 H          -8.970267      -27.230671       -3.764631
 H          -6.984629      -28.138960       -4.953316
 H          -7.009418      -29.500519       -3.848426
