20
 generated by VMD
 C         -47.945572     -134.173370      -47.607723
 N         -48.059849     -133.426514      -48.522499
 H         -49.590904     -134.265839      -44.227676
 H         -47.587944     -134.591995      -46.666122
 C         -50.224354     -134.989197      -43.713375
 C         -50.303188     -136.247452      -44.605812
 C         -51.062073     -134.792007      -42.536030
 C         -50.629242     -137.469406      -43.789673
 C         -51.404659     -136.141220      -41.810574
 C         -51.694023     -137.272781      -42.818119
 H         -49.365574     -136.280441      -45.101452
 H         -51.097511     -136.060928      -45.402443
 H         -50.710133     -134.117798      -41.786945
 H         -51.957230     -134.368042      -42.928913
 H         -49.676365     -137.750168      -43.334927
 H         -50.889866     -138.344589      -44.425926
 H         -52.320641     -135.888641      -41.241802
 H         -50.612644     -136.577301      -41.063511
 H         -51.719372     -138.354233      -42.286942
 H         -52.665916     -137.307266      -43.307079
