20
 generated by VMD
 C         -68.893349     -193.527863      -66.651489
 N         -67.793533     -193.592499      -66.269562
 H         -69.959198     -190.293793      -65.693764
 H         -70.011200     -193.494614      -66.788048
 C         -70.967224     -190.723282      -65.488899
 C         -72.015198     -190.586151      -66.630806
 C         -71.455803     -191.202499      -64.116158
 C         -73.144348     -191.547180      -66.546310
 C         -73.030327     -191.010910      -64.060356
 C         -73.713135     -191.859680      -65.120544
 H         -71.427025     -190.750412      -67.606300
 H         -72.370331     -189.528687      -66.569778
 H         -71.136955     -192.328705      -63.943947
 H         -71.020348     -190.490372      -63.417969
 H         -72.846497     -192.516235      -67.023544
 H         -73.906960     -191.290482      -67.311607
 H         -73.254250     -189.935974      -64.019226
 H         -73.326370     -191.447006      -63.040203
 H         -73.499657     -192.908112      -64.987816
 H         -74.862793     -191.601059      -65.142746
