20
 generated by VMD
 C         -58.594875     -158.897842      -58.151234
 N         -58.915367     -159.603973      -57.213623
 H         -58.998016     -160.830246      -54.770412
 H         -58.300816     -158.314545      -59.044476
 C         -59.453072     -161.256653      -53.917858
 C         -58.652203     -161.365921      -52.682686
 C         -60.719276     -161.908295      -54.219639
 C         -59.594460     -161.491348      -51.459400
 C         -61.627949     -161.768875      -52.965797
 C         -60.907707     -162.226974      -51.758289
 H         -57.925564     -160.578690      -52.502975
 H         -57.969296     -162.249359      -52.961430
 H         -61.326279     -161.471725      -55.060986
 H         -60.536583     -162.865097      -54.525715
 H         -59.897118     -160.363449      -51.321583
 H         -59.052090     -162.028534      -50.728527
 H         -62.488995     -162.448151      -53.164227
 H         -62.100784     -160.745468      -52.900063
 H         -61.513168     -161.967911      -50.861462
 H         -60.549591     -163.243500      -51.845913
