20
 generated by VMD
 C         -58.533508     -160.522079      -56.882732
 N         -58.620426     -159.883835      -57.803055
 H         -58.857780     -163.409851      -54.982327
 H         -58.383244     -161.150620      -56.040401
 C         -59.687340     -163.428528      -54.312931
 C         -59.544956     -163.127228      -52.854492
 C         -61.126030     -163.413651      -54.819160
 C         -60.375114     -162.198975      -52.063873
 C         -61.915714     -162.281418      -54.209858
 C         -61.829308     -162.193451      -52.697521
 H         -58.524487     -162.832291      -52.678307
 H         -59.428402     -164.084763      -52.352005
 H         -61.219391     -163.537079      -55.938980
 H         -61.609577     -164.287735      -54.460167
 H         -59.881489     -161.232880      -52.081814
 H         -60.465317     -162.600662      -51.049389
 H         -62.987381     -162.420929      -54.565384
 H         -61.390385     -161.341141      -54.737389
 H         -62.256725     -161.251373      -52.382877
 H         -62.408188     -162.933655      -52.099899
