20
 generated by VMD
 C          -1.847563      -13.976750        2.314516
 N          -1.764060      -14.716877        1.487942
 H          -3.760169      -16.786409        0.892673
 H          -4.383771      -17.118761       -0.798880
 C          -4.664470      -16.945696        0.269498
 C          -5.583353      -15.638366        0.432272
 C          -5.389433      -18.147957        0.877051
 C          -6.848374      -15.851738       -0.365257
 C          -6.774145      -18.353769        0.204159
 C          -7.624018      -17.083200        0.047483
 H          -5.029529      -14.820151       -0.008853
 H          -5.699256      -15.397011        1.526057
 H          -4.710024      -19.036896        0.631470
 H          -5.513103      -17.952070        2.013845
 H          -6.610310      -15.954034       -1.425644
 H          -7.485875      -15.001660       -0.388732
 H          -7.309218      -19.142113        0.741049
 H          -6.530605      -18.791407       -0.749890
 H          -8.550082      -17.167875       -0.567621
 H          -8.010460      -16.748032        1.034793
