20
 generated by VMD
 C         -40.292599     -118.672554      -35.110168
 N         -39.474464     -117.895248      -35.023964
 H         -42.976295     -116.593887      -36.335911
 H         -41.315445     -119.115685      -35.293171
 C         -43.661797     -116.829857      -37.132366
 C         -42.912838     -117.212570      -38.353767
 C         -45.033482     -116.155113      -37.264462
 C         -43.752483     -117.950935      -39.339561
 C         -45.857792     -117.032410      -38.203842
 C         -45.134708     -117.351372      -39.481472
 H         -42.108990     -117.895615      -38.199574
 H         -42.515499     -116.355927      -38.879509
 H         -45.378891     -116.135239      -36.196754
 H         -45.018169     -115.055038      -37.613686
 H         -43.973755     -118.961548      -38.944550
 H         -43.278732     -118.002731      -40.367157
 H         -46.757061     -116.384727      -38.320099
 H         -46.187088     -118.039749      -37.815849
 H         -45.897026     -117.875275      -40.016144
 H         -45.030983     -116.241005      -39.912910
