20
 generated by VMD
 C         -60.467316     -155.923752      -54.251724
 N         -61.021767     -156.351852      -55.153538
 H         -59.331566     -155.740814      -51.242924
 H         -60.043285     -155.501236      -53.326771
 C         -58.289627     -155.485123      -51.450504
 C         -57.508350     -154.622345      -50.548752
 C         -57.577919     -156.317688      -52.537334
 C         -56.376202     -155.351761      -49.947048
 C         -56.382278     -156.994095      -51.827431
 C         -55.503403     -156.071609      -51.008980
 H         -58.157539     -154.313736      -49.653061
 H         -57.140835     -153.735306      -51.062725
 H         -58.339970     -157.057571      -52.856358
 H         -57.306217     -155.641464      -53.267845
 H         -56.699917     -155.857697      -49.091637
 H         -55.665180     -154.638077      -49.458176
 H         -55.682957     -157.586319      -52.522839
 H         -56.802254     -157.803299      -51.273293
 H         -54.685501     -156.630493      -50.578506
 H         -55.020451     -155.280609      -51.650139
