20
 generated by VMD
 C         -47.796112     -136.720505      -46.062916
 N         -47.095928     -136.493683      -46.930378
 H         -50.609085     -135.955811      -45.349255
 H         -48.481476     -136.963440      -45.233936
 C         -51.032013     -136.874222      -44.965511
 C         -51.452919     -137.863190      -46.125694
 C         -51.979877     -136.695496      -43.824883
 C         -52.108444     -139.120285      -45.593086
 C         -52.580704     -137.961349      -43.288437
 C         -53.154823     -138.843658      -44.518955
 H         -50.544495     -138.119492      -46.784069
 H         -52.203495     -137.342392      -46.659100
 H         -51.372860     -136.280991      -42.984993
 H         -52.749184     -135.946350      -44.062832
 H         -51.340561     -139.811066      -45.250500
 H         -52.616592     -139.790100      -46.311367
 H         -53.274967     -137.887665      -42.328934
 H         -51.743408     -138.443787      -42.797070
 H         -53.585667     -139.690414      -44.151970
 H         -53.961243     -138.255508      -44.982449
