20
 generated by VMD
 C          -3.979440      -20.558187        3.172559
 N          -4.493688      -19.604256        2.894222
 H          -5.149595      -19.171499       -0.334150
 H          -5.830362      -20.763508       -0.467993
 C          -5.956136      -19.726728       -0.824471
 C          -5.688046      -19.606979       -2.305876
 C          -7.299291      -19.124184       -0.395670
 C          -6.788497      -20.244827       -3.112846
 C          -8.477493      -19.705738       -1.271745
 C          -8.146227      -19.562372       -2.774398
 H          -4.806384      -20.137075       -2.484189
 H          -5.626828      -18.507282       -2.573127
 H          -7.429260      -19.435427        0.727110
 H          -7.265722      -17.971973       -0.516028
 H          -6.767709      -21.338932       -2.997662
 H          -6.618897      -20.007496       -4.176383
 H          -9.365348      -19.190594       -0.973917
 H          -8.594736      -20.748272       -0.970247
 H          -8.926279      -20.034824       -3.367588
 H          -7.913973      -18.541739       -3.064870
