20
 generated by VMD
 C         -30.385134      -94.101555      -25.552713
 N         -29.612436      -93.600029      -24.861546
 H         -33.818993      -92.529564      -26.808342
 H         -31.037302      -94.575211      -26.295067
 C         -34.346996      -92.144806      -27.686598
 C         -35.790253      -92.287460      -27.850677
 C         -33.413158      -91.574722      -28.744389
 C         -36.450134      -91.373917      -28.978378
 C         -34.148129      -90.471733      -29.598566
 C         -35.392685      -91.040703      -30.134043
 H         -36.219090      -91.977798      -26.773891
 H         -36.325565      -93.276642      -28.020494
 H         -32.629944      -90.941917      -28.315985
 H         -33.030037      -92.408470      -29.424013
 H         -36.780453      -90.484871      -28.490969
 H         -37.313786      -91.942009      -29.378136
 H         -33.510010      -90.184601      -30.510202
 H         -34.380424      -89.619110      -29.002272
 H         -35.905376      -90.402267      -30.875017
 H         -35.395882      -92.055489      -30.510164
