20
 generated by VMD
 C         -68.231003     -194.291443      -66.202660
 N         -67.766411     -194.391159      -65.173485
 H         -70.937836     -191.692780      -67.458824
 H         -68.742279     -194.289703      -67.168831
 C         -71.486786     -191.395676      -66.555695
 C         -72.416351     -190.221176      -66.400848
 C         -71.573891     -192.399048      -65.410500
 C         -73.889481     -190.623108      -66.304062
 C         -72.882469     -192.295624      -64.652298
 C         -74.095276     -192.000626      -65.506493
 H         -72.325722     -189.695541      -67.292694
 H         -72.015717     -189.543701      -65.525436
 H         -71.502335     -193.470184      -65.825394
 H         -70.632278     -192.382370      -64.717010
 H         -74.369431     -190.817322      -67.278839
 H         -74.594444     -189.853653      -65.943565
 H         -72.920853     -191.420959      -63.906006
 H         -72.951126     -193.180481      -64.032349
 H         -74.175003     -192.739777      -66.261459
 H         -75.070625     -192.066467      -64.932159
