20
 generated by VMD
 C         -50.016644     -143.671417      -44.436707
 N         -49.252033     -143.580750      -45.360317
 H         -52.179283     -142.032074      -45.634552
 H         -50.562130     -143.624390      -43.487713
 C         -52.753376     -141.721542      -46.461346
 C         -52.235863     -141.621735      -47.751419
 C         -54.135098     -141.205109      -46.244228
 C         -53.159729     -142.245346      -48.735844
 C         -55.115448     -141.858200      -47.284946
 C         -54.585766     -141.769562      -48.741684
 H         -51.206036     -142.028763      -47.886246
 H         -52.082504     -140.553680      -47.949356
 H         -54.350002     -141.506790      -45.183022
 H         -54.253922     -140.129471      -46.127571
 H         -53.133659     -143.434418      -48.404793
 H         -52.835003     -142.257812      -49.823730
 H         -56.088165     -141.387878      -46.962479
 H         -55.249409     -142.973831      -47.146954
 H         -55.101505     -142.411728      -49.530373
 H         -54.489452     -140.671341      -49.143032
