20
 generated by VMD
 C         -31.078032      -74.859383      -21.871357
 N         -31.463200      -75.928467      -21.757246
 H         -28.447130      -76.712868      -20.631262
 H         -30.758492      -73.894569      -22.088585
 C         -27.665915      -76.281029      -21.301235
 C         -26.737892      -77.266357      -21.995857
 C         -26.993820      -75.036011      -20.600595
 C         -25.761330      -76.562325      -22.908920
 C         -25.990269      -74.358391      -21.627455
 C         -25.028818      -75.387680      -22.182220
 H         -27.349775      -78.023460      -22.393009
 H         -26.095083      -77.815964      -21.265200
 H         -27.859266      -74.285278      -20.222836
 H         -26.384460      -75.379845      -19.720808
 H         -26.278278      -76.162125      -23.793785
 H         -25.082647      -77.340164      -23.227692
 H         -25.379593      -73.591728      -21.176701
 H         -26.499981      -73.891907      -22.472389
 H         -24.247276      -74.945801      -22.819939
 H         -24.284147      -75.762001      -21.410633
