20
 generated by VMD
 C         -79.508492     -205.159164      -70.938408
 N         -80.607010     -205.454041      -70.932724
 H         -77.050438     -203.053238      -69.197281
 H         -78.498978     -204.867294      -70.934738
 C         -76.004776     -203.073044      -69.494209
 C         -75.522636     -201.947372      -70.420219
 C         -75.117859     -204.177460      -69.071426
 C         -73.938019     -201.765625      -70.348679
 C         -73.595406     -203.984283      -69.176468
 C         -73.068115     -202.972473      -70.186165
 H         -75.986694     -201.015076      -70.070023
 H         -75.896324     -202.188309      -71.430328
 H         -75.235497     -204.157715      -67.957512
 H         -75.385139     -205.169098      -69.559479
 H         -73.721626     -201.069489      -69.536774
 H         -73.616158     -201.376312      -71.286293
 H         -73.099434     -204.980255      -69.372116
 H         -73.453629     -203.701752      -68.198433
 H         -72.176025     -202.562576      -69.805649
 H         -72.804840     -203.511612      -71.125481
