20
 generated by VMD
 C         -74.596016     -201.401688      -66.032242
 N         -73.547279     -200.939713      -66.078041
 H         -76.261032     -198.820099      -68.420677
 H         -75.623924     -201.782349      -65.832520
 C         -75.404671     -198.303787      -68.903137
 C         -75.009773     -197.153229      -68.077110
 C         -74.563805     -199.020416      -69.910858
 C         -73.517769     -196.736649      -68.019058
 C         -73.218887     -198.362488      -69.996925
 C         -72.577309     -197.808243      -68.743462
 H         -75.389534     -197.295502      -67.102791
 H         -75.450974     -196.166397      -68.523148
 H         -74.343506     -200.034668      -69.503845
 H         -75.095772     -199.082886      -70.959381
 H         -73.183243     -196.676743      -67.000595
 H         -73.203270     -195.836044      -68.525314
 H         -73.165123     -197.511978      -70.752983
 H         -72.603546     -199.168182      -70.453041
 H         -72.338158     -198.696793      -68.075127
 H         -71.542419     -197.375992      -68.992836
