20
 generated by VMD
 C         -65.255791     -176.403763      -55.975475
 N         -65.439636     -177.369125      -55.382454
 H         -64.625847     -174.920456      -59.247154
 H         -65.148849     -175.486893      -56.547428
 C         -64.373985     -173.801971      -59.381126
 C         -65.151901     -172.703064      -58.639244
 C         -63.713028     -173.269821      -60.729237
 C         -64.632607     -171.316666      -58.677105
 C         -63.132824     -171.863861      -60.511299
 C         -64.144615     -170.869934      -59.964672
 H         -65.193207     -172.889725      -57.508896
 H         -66.145515     -172.622131      -58.953197
 H         -62.948345     -173.987946      -60.956268
 H         -64.648392     -173.318390      -61.430653
 H         -63.967297     -171.126389      -57.835606
 H         -65.461349     -170.615997      -58.461742
 H         -62.838989     -171.481339      -61.442833
 H         -62.267239     -171.982101      -59.805218
 H         -63.613544     -169.936417      -59.769451
 H         -64.945633     -170.671188      -60.768585
