20
 generated by VMD
 C         -40.365929      -99.775848      -29.158995
 N         -39.668282     -100.121094      -28.310257
 H         -37.425125      -99.607567      -30.634209
 H         -41.089237      -99.360596      -29.861197
 C         -36.427326      -99.032761      -30.755093
 C         -35.919506      -98.926315      -32.152470
 C         -35.398968      -98.571907      -29.656809
 C         -34.608086      -98.090904      -32.450512
 C         -34.302238      -97.615227      -30.009657
 C         -33.674103      -98.077377      -31.270874
 H         -36.795265      -98.643250      -32.685963
 H         -35.667522      -99.986946      -32.423115
 H         -35.854908      -98.078476      -28.841614
 H         -34.944408      -99.536209      -29.277964
 H         -35.013630      -97.001602      -32.455093
 H         -34.156330      -98.258522      -33.414555
 H         -33.508537      -97.674400      -29.279543
 H         -34.641716      -96.511307      -30.167494
 H         -32.831966      -97.347961      -31.447441
 H         -33.257599      -99.089294      -31.162758
