20
 generated by VMD
 C         -65.279655     -176.540329      -56.011101
 N         -65.542686     -177.396652      -55.302162
 H         -64.748314     -174.703934      -59.462513
 H         -65.058945     -175.700607      -56.627804
 C         -64.271194     -173.764740      -59.352264
 C         -65.220398     -172.828430      -58.659046
 C         -63.741428     -173.259705      -60.650410
 C         -64.679192     -171.346603      -58.637211
 C         -63.082607     -171.839172      -60.617352
 C         -64.104355     -170.858521      -60.047565
 H         -65.374527     -173.121674      -57.666454
 H         -66.204323     -172.893295      -59.279686
 H         -63.153877     -173.983826      -61.233253
 H         -64.541687     -173.223541      -61.341698
 H         -63.762501     -171.316788      -57.922676
 H         -65.446777     -170.596558      -58.221146
 H         -62.737278     -171.576019      -61.636337
 H         -62.253296     -171.831985      -59.959965
 H         -63.681965     -169.834961      -59.946472
 H         -64.972839     -170.710663      -60.645683
