20
 generated by VMD
 C         -63.104832     -173.418198      -55.655998
 N         -63.226387     -174.081161      -54.740810
 H         -61.658020     -171.674088      -58.816059
 H         -62.886005     -172.744614      -56.440907
 C         -62.538013     -171.025757      -58.668900
 C         -62.592197     -169.783066      -57.772888
 C         -63.815861     -171.770844      -59.112820
 C         -63.689804     -168.792786      -58.306786
 C         -64.911179     -170.830658      -59.526501
 C         -64.969566     -169.548325      -58.632172
 H         -61.649448     -169.297943      -57.671307
 H         -62.940632     -170.053772      -56.644550
 H         -63.641483     -172.483734      -60.008850
 H         -64.049248     -172.558258      -58.371307
 H         -63.310249     -168.367706      -59.342644
 H         -63.801636     -167.900452      -57.629761
 H         -65.817329     -171.406174      -59.525364
 H         -64.835091     -170.514694      -60.593784
 H         -65.766960     -168.922897      -59.011612
 H         -65.318245     -169.904007      -57.692944
