20
 generated by VMD
 C         -38.729214     -113.608681      -35.846951
 N         -37.695999     -114.157722      -35.907639
 H         -41.355606     -115.052811      -35.720982
 H         -39.509666     -112.917854      -35.987877
 C         -42.222328     -114.586449      -36.086201
 C         -42.386967     -114.372223      -37.470009
 C         -43.397335     -114.288307      -35.223824
 C         -43.521313     -115.306541      -37.977058
 C         -44.689205     -114.990677      -35.734280
 C         -44.882259     -115.087273      -37.266338
 H         -41.588070     -114.656013      -38.154839
 H         -42.756939     -113.352295      -37.761017
 H         -42.997025     -114.315804      -34.196541
 H         -43.480003     -113.173965      -35.318130
 H         -43.174335     -116.332123      -37.642773
 H         -43.713757     -115.281136      -39.045212
 H         -45.702198     -114.568672      -35.398872
 H         -44.614185     -115.992653      -35.192913
 H         -45.521336     -115.988632      -37.375053
 H         -45.243904     -114.165817      -37.791965
