20
 generated by VMD
 C         -68.537331     -185.399780      -67.237251
 N         -67.639366     -185.159576      -66.533073
 H         -69.259506     -187.161636      -65.008453
 H         -69.349396     -185.712158      -67.951149
 C         -69.518501     -187.036880      -63.959702
 C         -70.214233     -185.756165      -63.538834
 C         -69.690414     -188.172607      -62.941818
 C         -69.695168     -185.389511      -62.114277
 C         -69.553452     -187.737839      -61.505894
 C         -70.189362     -186.460510      -61.146507
 H         -71.245110     -186.006836      -63.424820
 H         -70.017471     -184.992706      -64.302261
 H         -70.642326     -188.612167      -62.981297
 H         -68.812416     -188.847321      -63.045822
 H         -70.091904     -184.440964      -61.814518
 H         -68.559181     -185.427032      -62.003326
 H         -68.517548     -187.668533      -61.212177
 H         -69.852982     -188.519974      -60.871071
 H         -71.174377     -186.703613      -60.911491
 H         -69.725983     -186.117111      -60.202999
