20
 generated by VMD
 C         -58.898346     -159.028503      -57.824528
 N         -58.463348     -160.048737      -57.656380
 H         -58.691990     -161.573486      -54.952618
 H         -59.361443     -158.074783      -58.028713
 C         -59.296329     -161.539230      -54.064083
 C         -58.778519     -161.926086      -52.683239
 C         -60.769428     -161.929306      -54.343052
 C         -59.906223     -161.630035      -51.618347
 C         -61.834961     -161.936081      -53.146717
 C         -61.215519     -162.402206      -51.844212
 H         -57.846214     -161.341217      -52.580418
 H         -58.501884     -162.901123      -52.556576
 H         -61.132011     -161.407028      -55.296574
 H         -60.780819     -163.056000      -54.557655
 H         -60.021030     -160.572693      -51.394737
 H         -59.467384     -161.971161      -50.623867
 H         -62.585613     -162.674500      -53.372871
 H         -62.264889     -160.927673      -53.130341
 H         -61.857834     -162.458862      -50.888691
 H         -60.963367     -163.461487      -51.978397
