20
 generated by VMD
 C         -41.706207     -102.278122      -34.137085
 N         -40.906372     -101.833466      -34.874371
 H         -39.340046     -104.039589      -32.490219
 H         -42.204651     -102.923882      -33.400669
 C         -38.385326     -104.093353      -32.110226
 C         -37.362019     -103.599258      -33.024483
 C         -38.120483     -105.069534      -30.919067
 C         -35.962112     -103.322540      -32.283516
 C         -36.928646     -104.441040      -30.239616
 C         -35.750557     -104.397987      -31.220947
 H         -37.760601     -102.763000      -33.570126
 H         -36.967377     -104.432701      -33.696697
 H         -38.845913     -105.007797      -30.175594
 H         -38.058506     -106.162560      -31.265043
 H         -36.112106     -102.348709      -32.012192
 H         -35.137676     -103.322845      -32.983669
 H         -36.709854     -105.129745      -29.333927
 H         -37.169071     -103.491554      -29.815910
 H         -34.842327     -104.164330      -30.637703
 H         -35.610893     -105.307373      -31.690380
