20
 generated by VMD
 C         -38.305820     -109.686386      -36.461845
 N         -37.645058     -108.976883      -35.776615
 H         -41.926979     -110.857323      -37.196106
 H         -38.889061     -110.343735      -37.051830
 C         -41.913292     -111.477737      -36.322617
 C         -42.064747     -112.914909      -36.208050
 C         -41.990440     -110.541534      -35.099117
 C         -41.810219     -113.603416      -34.914150
 C         -41.984406     -111.258797      -33.677963
 C         -42.449581     -112.746498      -33.796875
 H         -41.368053     -113.292915      -36.921886
 H         -42.991753     -113.343979      -36.629093
 H         -41.062897     -109.957520      -34.959866
 H         -42.882324     -109.919899      -35.050919
 H         -40.760651     -113.657761      -34.782429
 H         -42.253399     -114.656006      -35.014996
 H         -42.765316     -110.748497      -33.131329
 H         -41.076408     -111.129074      -33.166790
 H         -42.309242     -113.173531      -32.898304
 H         -43.569859     -112.730003      -33.993542
