20
 generated by VMD
 C         -23.032562      -54.280888      -15.183323
 N         -24.022898      -53.782345      -15.453618
 H         -20.054630      -54.525822      -15.240352
 H         -22.280518      -55.093460      -14.656819
 C         -19.735466      -55.320904      -14.565979
 C         -19.102842      -54.502220      -13.473961
 C         -19.185474      -56.584389      -15.064868
 C         -18.515284      -55.362759      -12.434939
 C         -18.325665      -57.389866      -14.063585
 C         -17.619276      -56.552605      -13.011030
 H         -19.867382      -53.789783      -13.119780
 H         -18.242878      -53.991383      -13.875023
 H         -20.133133      -57.117661      -15.481509
 H         -18.539480      -56.330090      -15.909227
 H         -19.356241      -55.781452      -11.862110
 H         -17.880060      -54.751019      -11.837968
 H         -17.573441      -57.964825      -14.617279
 H         -18.958942      -58.077656      -13.551178
 H         -17.266996      -57.117634      -12.112183
 H         -16.729282      -56.115471      -13.458276
