20
 generated by VMD
 C         -50.973465     -129.963120      -44.977211
 N         -51.691399     -129.282761      -45.527489
 H         -48.630985     -129.906662      -43.340134
 H         -50.504051     -130.718018      -44.381973
 C         -48.042542     -129.901230      -42.344521
 C         -47.965240     -131.136139      -41.607807
 C         -47.497601     -128.781662      -41.583660
 C         -46.510380     -131.493347      -41.066544
 C         -46.098606     -128.979309      -41.062229
 C         -45.933941     -130.315872      -40.317322
 H         -48.319145     -131.905090      -42.190475
 H         -48.656647     -131.022812      -40.717632
 H         -47.655262     -127.949280      -42.309639
 H         -48.148842     -128.576981      -40.841053
 H         -45.997929     -131.666580      -42.010094
 H         -46.853458     -132.394531      -40.508636
 H         -45.897118     -128.063675      -40.486855
 H         -45.329845     -128.946152      -41.887463
 H         -44.905148     -130.444519      -39.928928
 H         -46.481659     -130.159592      -39.347286
