20
 generated by VMD
 C         -78.038132     -204.108490      -69.979462
 N         -79.185532     -203.747314      -70.002480
 H         -76.183571     -203.058853      -67.920746
 H         -77.016769     -204.404602      -69.944801
 C         -75.453705     -202.612564      -68.619476
 C         -75.934227     -201.550766      -69.565887
 C         -74.312614     -203.443756      -68.939079
 C         -74.868027     -201.317139      -70.745552
 C         -73.142082     -202.624435      -69.375374
 C         -73.440704     -201.468674      -70.325302
 H         -76.090630     -200.652710      -68.993858
 H         -76.851059     -201.714905      -70.149422
 H         -73.954750     -204.101166      -68.115753
 H         -74.681061     -204.288574      -69.669464
 H         -75.097389     -200.384903      -71.258514
 H         -75.020340     -202.173279      -71.507591
 H         -72.461258     -203.206055      -69.936180
 H         -72.688286     -202.275909      -68.495590
 H         -73.246140     -200.631271      -69.800499
 H         -72.725716     -201.409531      -71.174828
