20
 generated by VMD
 C         -19.854633      -57.480888      -16.904459
 N         -19.200300      -57.973450      -17.745857
 H         -22.630466      -59.652493      -17.269169
 H         -20.291454      -57.144085      -15.874207
 C         -22.651562      -60.464493      -16.477568
 C         -23.975208      -61.244209      -16.219275
 C         -21.400850      -60.908016      -15.806893
 C         -23.630621      -62.709671      -16.111736
 C         -21.471445      -62.229465      -15.096004
 C         -22.857588      -62.803486      -14.816206
 H         -24.597889      -61.136497      -17.154203
 H         -24.681044      -60.806698      -15.455964
 H         -20.647749      -61.148785      -16.557106
 H         -21.040442      -60.058254      -15.199849
 H         -22.945953      -62.970009      -16.932905
 H         -24.499830      -63.331814      -16.190872
 H         -20.909773      -62.147118      -14.166274
 H         -20.860554      -63.007282      -15.642193
 H         -22.948078      -63.771606      -14.397059
 H         -23.354860      -62.163204      -14.071598
