20
 generated by VMD
 C         -65.769135     -177.653259      -56.866482
 N         -66.174583     -176.589020      -56.969845
 H         -64.904617     -175.760193      -59.351860
 H         -65.413940     -178.680481      -56.668983
 C         -64.637924     -174.639984      -59.401508
 C         -65.453781     -173.668350      -58.612045
 C         -63.538509     -174.248550      -60.285366
 C         -65.218903     -172.121536      -59.038990
 C         -63.184204     -172.825531      -60.259071
 C         -64.304504     -171.822067      -60.211292
 H         -65.068726     -173.824173      -57.554619
 H         -66.505730     -173.923401      -58.487305
 H         -62.620659     -174.763641      -59.985970
 H         -63.526215     -174.545029      -61.395439
 H         -64.818748     -171.645370      -58.121883
 H         -66.232697     -171.721222      -59.104668
 H         -62.550457     -172.625198      -61.080456
 H         -62.506969     -172.583328      -59.383629
 H         -63.969727     -170.798599      -60.445034
 H         -64.766487     -172.105560      -61.145428
