20
 generated by VMD
 C         -66.587646     -189.698547      -66.723900
 N         -66.461014     -189.123337      -67.740326
 H         -69.557495     -190.187943      -64.387932
 H         -66.809105     -190.110382      -65.713005
 C         -70.458763     -189.601166      -64.317894
 C         -71.644478     -190.638702      -63.986435
 C         -70.427193     -188.228439      -63.713318
 C         -72.910934     -189.854675      -63.982513
 C         -71.854820     -187.614990      -63.705360
 C         -72.866051     -188.570694      -63.145927
 H         -71.472939     -191.140045      -63.023876
 H         -71.567688     -191.426895      -64.783241
 H         -70.025032     -188.387161      -62.656582
 H         -69.662292     -187.574707      -64.141479
 H         -73.634102     -190.489685      -63.396091
 H         -73.243958     -189.674759      -65.003143
 H         -71.963654     -187.220993      -64.700272
 H         -71.911026     -186.710739      -63.056866
 H         -72.722565     -188.805359      -62.083874
 H         -73.820572     -187.979446      -63.129753
