20
 generated by VMD
 C         -41.506275     -119.766068      -34.200420
 N         -41.688698     -120.583725      -35.021088
 H         -43.451565     -118.742233      -37.071396
 H         -41.453003     -119.191658      -33.346226
 C         -43.917702     -118.492325      -37.965214
 C         -42.990070     -118.342674      -39.190998
 C         -45.235718     -117.885368      -37.821827
 C         -43.830139     -118.778412      -40.338448
 C         -46.012344     -118.151260      -39.128239
 C         -45.131668     -117.925468      -40.350044
 H         -42.103043     -118.968872      -38.939064
 H         -42.624996     -117.250076      -39.311378
 H         -45.637547     -118.467789      -37.039635
 H         -45.307411     -116.775871      -37.573513
 H         -44.105568     -119.899284      -40.211563
 H         -43.228912     -118.653610      -41.208496
 H         -46.852207     -117.370956      -39.056519
 H         -46.438007     -119.148758      -39.228516
 H         -45.719196     -118.219635      -41.204659
 H         -44.814110     -116.833748      -40.364071
