20
 generated by VMD
 C         -58.612175     -161.361801      -56.422421
 N         -58.438992     -160.187363      -56.542759
 H         -59.412884     -164.802414      -55.129276
 H         -58.790257     -162.431152      -56.294891
 C         -60.046516     -164.117188      -54.583309
 C         -59.757156     -163.542526      -53.267872
 C         -61.496929     -164.067688      -55.036514
 C         -60.280407     -162.113770      -53.110531
 C         -62.357193     -162.784760      -54.583637
 C         -61.799534     -162.156372      -53.263996
 H         -58.724247     -163.578918      -53.158710
 H         -60.172020     -164.094513      -52.510471
 H         -61.648937     -164.317780      -56.144222
 H         -61.989410     -164.925568      -54.629429
 H         -60.022896     -161.327133      -53.796318
 H         -60.075661     -161.722290      -52.020573
 H         -63.462368     -163.153168      -54.387772
 H         -62.210888     -161.927750      -55.387131
 H         -62.249809     -161.131073      -53.015240
 H         -62.170849     -162.768265      -52.403603
