20
 generated by VMD
 C         -39.862278     -100.986710      -31.472908
 N         -40.593060     -100.098976      -31.171375
 H         -37.306362     -103.427284      -31.709503
 H         -39.107098     -101.736359      -31.860435
 C         -36.855560     -102.441490      -31.589272
 C         -36.198685     -101.929787      -32.746380
 C         -36.466721     -101.956238      -30.133959
 C         -35.875256     -100.483780      -32.525333
 C         -36.278164     -100.505669      -30.128899
 C         -35.258232     -100.274284      -31.129025
 H         -36.821930     -102.011024      -33.634193
 H         -35.274578     -102.496277      -33.041302
 H         -37.329899     -102.219101      -29.447876
 H         -35.549362     -102.473389      -29.814577
 H         -36.702782      -99.867752      -32.625778
 H         -35.179512      -99.997017      -33.221828
 H         -35.869797     -100.164543      -29.093206
 H         -37.170906      -99.883614      -30.257599
 H         -34.780926      -99.345268      -31.043884
 H         -34.385849     -100.946526      -30.974812
