20
 generated by VMD
 C         -15.258183      -47.312389       -6.272090
 N         -15.366106      -46.839630       -5.269379
 H         -16.304882      -46.615715       -9.846782
 H         -15.058558      -46.471684      -11.118625
 C         -16.094158      -46.222961      -10.848991
 C         -16.413343      -44.762993      -10.857288
 C         -16.970314      -47.069191      -11.845851
 C         -16.328123      -44.257915      -12.296298
 C         -16.857311      -46.708183      -13.272569
 C         -17.148390      -45.216610      -13.243195
 H         -15.719604      -44.213078      -10.226292
 H         -17.465202      -44.655758      -10.508612
 H         -16.614183      -48.111073      -11.692249
 H         -18.006502      -46.988914      -11.551475
 H         -15.255556      -44.333149      -12.517230
 H         -16.676529      -43.206474      -12.413466
 H         -17.658716      -47.178947      -13.963739
 H         -15.901921      -46.917843      -13.739223
 H         -16.999014      -44.890064      -14.293129
 H         -18.226009      -44.978264      -13.115769
