20
 generated by VMD
 C         -66.259430     -177.924164      -56.880920
 N         -67.350212     -177.575760      -57.061069
 H         -64.169350     -175.936615      -59.081509
 H         -65.202469     -178.243164      -56.839539
 C         -64.240005     -174.943665      -59.322033
 C         -65.544624     -174.099915      -59.215923
 C         -63.419979     -174.488388      -60.465431
 C         -65.230095     -172.551270      -59.204201
 C         -63.102608     -173.020264      -60.266663
 C         -64.301178     -172.121552      -60.338936
 H         -65.936707     -174.413895      -58.178268
 H         -66.210831     -174.271744      -60.017700
 H         -62.453747     -175.036957      -60.519390
 H         -63.955566     -174.471313      -61.420658
 H         -64.782303     -172.365234      -58.178314
 H         -66.237129     -172.073669      -59.274727
 H         -62.408936     -172.676483      -60.969448
 H         -62.618645     -173.070175      -59.216553
 H         -64.087418     -170.992432      -60.396095
 H         -64.704010     -172.473709      -61.315311
