20
 generated by VMD
 C         -21.170557      -52.172688       -9.755655
 N         -21.398235      -52.713383      -10.731469
 H         -19.382107      -50.037498      -11.974103
 H         -20.961334      -51.979622       -8.474972
 C         -18.480045      -50.214314      -12.602190
 C         -17.960894      -51.550877      -12.975065
 C         -17.527668      -49.092876      -12.236451
 C         -16.869713      -51.529327      -14.043644
 C         -16.356342      -49.182491      -13.205724
 C         -15.761034      -50.531769      -13.584481
 H         -18.706392      -52.286388      -13.244133
 H         -17.545086      -52.019421      -12.017285
 H         -18.037792      -48.125870      -12.432483
 H         -17.157637      -49.164742      -11.209447
 H         -17.373533      -51.138565      -14.958298
 H         -16.549814      -52.572651      -14.167685
 H         -15.499774      -48.620365      -12.857206
 H         -16.685884      -48.616879      -14.069275
 H         -14.984893      -50.399582      -14.333259
 H         -15.222893      -50.991932      -12.743909
