20
 generated by VMD
 C         -30.905626      -75.780464      -22.728926
 N         -30.953840      -75.000122      -23.626650
 H         -28.777109      -78.650734      -21.527021
 H         -30.948183      -76.363686      -21.882654
 C         -27.999947      -77.941978      -21.640877
 C         -27.011795      -78.223953      -22.694502
 C         -27.420767      -77.242516      -20.434526
 C         -26.344032      -77.023979      -23.140709
 C         -26.934357      -75.886925      -20.851900
 C         -25.887798      -76.060730      -22.042072
 H         -27.556322      -78.664101      -23.484589
 H         -26.361431      -78.949120      -22.343227
 H         -28.280094      -77.066902      -19.784552
 H         -26.627008      -77.814178      -19.860001
 H         -27.042206      -76.472755      -23.787281
 H         -25.493156      -77.114487      -23.769220
 H         -26.316832      -75.367569      -20.048632
 H         -27.891413      -75.234909      -21.058781
 H         -25.687304      -75.075974      -22.467396
 H         -24.953474      -76.618469      -21.630917
