20
 generated by VMD
 C         -30.139353      -92.706970      -25.677786
 N         -31.286077      -93.006416      -25.702114
 H         -32.895210      -90.896950      -26.340902
 H         -29.060575      -92.545952      -25.752136
 C         -33.543247      -91.047195      -27.183989
 C         -34.466743      -92.131859      -27.401537
 C         -33.185307      -90.334473      -28.448725
 C         -35.724972      -91.671265      -28.213928
 C         -34.271458      -89.918365      -29.404011
 C         -35.310753      -91.079689      -29.631422
 H         -34.701714      -92.516823      -26.518396
 H         -33.837715      -92.834396      -27.947334
 H         -32.523384      -89.499771      -28.281141
 H         -32.479954      -90.969490      -29.019630
 H         -36.310822      -90.911690      -27.568115
 H         -36.386177      -92.500221      -28.347511
 H         -33.948307      -89.461052      -30.368299
 H         -34.898022      -89.180077      -28.926805
 H         -36.246357      -90.742874      -30.156679
 H         -34.892353      -91.885963      -30.260025
