20
 generated by VMD
 C         -20.039412      -61.643719      -16.367464
 N         -19.828644      -61.094963      -17.390978
 H         -21.548374      -64.460381      -17.492203
 H         -20.260201      -62.259541      -15.605754
 C         -22.637533      -64.317795      -17.295080
 C         -23.429466      -63.691315      -18.435835
 C         -23.269978      -64.295860      -15.967885
 C         -24.596624      -64.643356      -18.709648
 C         -24.576839      -65.064674      -16.299654
 C         -25.489780      -64.807755      -17.501242
 H         -22.702490      -63.794670      -19.268486
 H         -23.679064      -62.659683      -18.241568
 H         -22.650103      -64.766296      -15.162901
 H         -23.311054      -63.271652      -15.749824
 H         -24.139946      -65.593925      -19.019749
 H         -25.147972      -64.404129      -19.689585
 H         -25.136688      -64.803368      -15.416248
 H         -24.388929      -66.138893      -16.264847
 H         -26.165371      -65.734703      -17.696178
 H         -26.204988      -63.949303      -17.500242
