20
 generated by VMD
 C         -24.708769      -70.064339      -16.382027
 N         -24.648949      -70.690125      -15.431359
 H         -23.714874      -67.900360      -18.900558
 H         -24.506794      -69.459618      -17.350674
 C         -24.388084      -68.264671      -19.645748
 C         -23.827841      -68.862984      -20.892010
 C         -25.835640      -67.819084      -19.536577
 C         -24.680799      -70.070831      -21.358858
 C         -26.607378      -68.993736      -19.992838
 C         -26.185463      -69.576675      -21.298855
 H         -22.836065      -69.188744      -20.841877
 H         -23.730522      -67.990799      -21.585865
 H         -26.019554      -67.591835      -18.523272
 H         -26.010191      -67.125412      -20.321756
 H         -24.415289      -70.932411      -20.698641
 H         -24.454847      -70.272392      -22.438118
 H         -27.699780      -68.709755      -20.218430
 H         -26.669600      -69.809837      -19.177334
 H         -26.790949      -70.441910      -21.469912
 H         -26.448248      -68.868752      -22.052599
