20
 generated by VMD
 C         -28.537836      -86.635422      -26.727819
 N         -27.571993      -87.215118      -26.546679
 H         -30.983181      -88.037415      -25.181511
 H         -29.336815      -86.033569      -26.900423
 C         -31.980000      -87.881371      -25.599009
 C         -33.166199      -88.075203      -24.762096
 C         -32.136497      -87.926544      -27.105278
 C         -34.453922      -87.584709      -25.227684
 C         -33.500782      -87.400475      -27.553284
 C         -34.691689      -88.073212      -26.666948
 H         -32.984951      -87.471924      -23.843266
 H         -33.119884      -89.091629      -24.241480
 H         -31.390862      -87.226234      -27.427378
 H         -31.778225      -88.915642      -27.423521
 H         -34.469456      -86.493919      -25.233904
 H         -35.191681      -88.051292      -24.621887
 H         -33.787708      -87.596794      -28.616434
 H         -33.563309      -86.347572      -27.299192
 H         -35.747326      -87.761604      -27.029999
 H         -34.666027      -89.284927      -26.687984
