20
 generated by VMD
 C         -30.447023      -74.230148      -20.925699
 N         -30.290070      -75.256683      -20.445524
 H         -27.191120      -74.774048      -19.322096
 H         -30.667826      -73.166039      -20.999182
 C         -26.562286      -74.533783      -20.169340
 C         -26.226480      -75.635796      -21.077333
 C         -25.995815      -73.154343      -20.388723
 C         -26.016575      -75.210022      -22.459476
 C         -25.795198      -72.769875      -21.839098
 C         -25.102011      -73.992119      -22.658146
 H         -26.983053      -76.298340      -21.070589
 H         -25.325741      -76.114754      -20.683741
 H         -26.718822      -72.462349      -19.904932
 H         -25.022953      -73.026031      -19.982422
 H         -27.036798      -75.100510      -22.898375
 H         -25.551359      -76.064949      -23.026833
 H         -25.155579      -71.930557      -22.059814
 H         -26.788721      -72.707390      -22.232893
 H         -25.099720      -73.797661      -23.774759
 H         -24.017090      -74.143524      -22.458065
