20
 generated by VMD
 C          -1.300627      -10.905793        0.775137
 N          -1.162954       -9.996505        1.426778
 H          -3.683681      -12.702923        0.450716
 H          -4.741827      -12.175897        1.759502
 C          -4.286028      -13.088120        1.272522
 C          -3.470953      -13.947777        2.191290
 C          -5.412065      -13.946057        0.623468
 C          -4.244641      -14.664380        3.289384
 C          -6.252026      -14.676397        1.702065
 C          -5.368546      -15.454322        2.701425
 H          -2.695035      -13.249756        2.657408
 H          -2.947675      -14.699254        1.571098
 H          -6.025381      -13.429941       -0.078783
 H          -4.988550      -14.688835       -0.028569
 H          -4.568409      -13.861409        3.957970
 H          -3.459553      -15.294903        3.753731
 H          -6.870006      -15.417298        1.115924
 H          -6.953416      -13.995357        2.205010
 H          -6.004253      -15.748426        3.512406
 H          -5.047586      -16.349297        2.204970
