20
 generated by VMD
 C         -12.013428      -25.546703       -0.317629
 N         -12.989239      -26.049458       -0.131716
 H          -9.296082      -26.811567       -2.411113
 H          -9.498738      -25.854351       -3.940118
 C          -8.717619      -26.234682       -3.207414
 C          -7.708408      -27.122473       -3.945276
 C          -8.125209      -25.013029       -2.574600
 C          -6.743947      -26.415304       -4.869716
 C          -7.187394      -24.283361       -3.467041
 C          -6.198717      -25.052935       -4.325980
 H          -8.154237      -27.972082       -4.459450
 H          -7.144249      -27.594385       -3.041825
 H          -8.871368      -24.365551       -2.129874
 H          -7.450392      -25.352795       -1.766855
 H          -7.347098      -26.090979       -5.758249
 H          -5.968878      -27.108334       -5.287991
 H          -6.679578      -23.504032       -2.851528
 H          -7.813248      -23.696629       -4.137919
 H          -5.613842      -24.449614       -5.006152
 H          -5.446687      -25.306469       -3.560336
