20
 generated by VMD
 C         -47.888718     -125.141693      -38.986137
 N         -47.423466     -126.143135      -38.566124
 H         -45.730785     -123.055176      -37.844063
 H         -48.267426     -124.096031      -39.203915
 C         -45.464027     -123.151314      -38.844460
 C         -44.301594     -123.991341      -39.405060
 C         -45.587486     -121.890495      -39.724827
 C         -44.465328     -124.433838      -40.844513
 C         -45.897141     -122.231812      -41.143379
 C         -44.804325     -123.192574      -41.733940
 H         -44.157337     -124.986710      -38.802322
 H         -43.469303     -123.349838      -39.226086
 H         -46.238819     -121.111694      -39.444973
 H         -44.565990     -121.442932      -39.685253
 H         -45.365559     -125.049446      -40.813183
 H         -43.640953     -125.098869      -41.094585
 H         -45.897209     -121.268059      -41.606750
 H         -46.859161     -122.720085      -41.251564
 H         -45.075523     -123.532761      -42.765945
 H         -43.875324     -122.584793      -41.796711
