20
 generated by VMD
 C         -49.920513     -127.611626      -39.242531
 N         -49.185593     -126.720078      -39.168133
 H         -47.329350     -126.327293      -41.352337
 H         -50.777557     -128.290695      -39.181278
 C         -46.316952     -125.693977      -41.342003
 C         -45.072514     -126.028168      -40.427059
 C         -46.572479     -124.120140      -41.139912
 C         -43.830006     -125.145554      -40.705353
 C         -45.344685     -123.278442      -41.401913
 C         -44.163055     -123.681839      -40.599430
 H         -44.875404     -127.056351      -40.505096
 H         -45.411648     -125.784599      -39.358498
 H         -47.470661     -123.878166      -41.743847
 H         -46.731010     -124.003464      -40.114902
 H         -43.444603     -125.331215      -41.736969
 H         -43.020363     -125.383186      -39.970383
 H         -45.586716     -122.301147      -41.163147
 H         -45.273331     -123.399124      -42.433678
 H         -43.255424     -123.028839      -40.721218
 H         -44.513474     -123.568855      -39.607872
