20
 generated by VMD
 C         -68.588943     -185.592133      -66.505974
 N         -67.907127     -186.293762      -67.147346
 H         -69.575050     -183.319794      -63.572666
 H         -69.112633     -184.937531      -65.883461
 C         -69.420670     -184.267120      -62.948330
 C         -70.693016     -184.906342      -62.417492
 C         -68.262764     -185.184494      -63.118996
 C         -70.518921     -185.787109      -61.226738
 C         -67.950096     -185.735107      -61.712978
 C         -69.169220     -186.579895      -61.283104
 H         -71.011200     -185.460861      -63.240746
 H         -71.363243     -184.098190      -62.217010
 H         -68.413353     -186.065414      -63.684105
 H         -67.378380     -184.644577      -63.454082
 H         -71.405510     -186.401443      -61.212505
 H         -70.543945     -185.298615      -60.285442
 H         -67.932884     -184.855865      -61.049683
 H         -66.992004     -186.150253      -61.686230
 H         -69.181923     -187.457108      -62.076931
 H         -68.794350     -186.989975      -60.232815
