20
 generated by VMD
 C         -65.302185     -176.729935      -56.051079
 N         -65.702003     -177.435486      -55.192547
 H         -63.814777     -174.490311      -58.814556
 H         -64.936371     -176.127243      -56.870735
 C         -64.259903     -173.726196      -59.393219
 C         -65.285156     -172.794205      -58.730671
 C         -63.710720     -173.265076      -60.745121
 C         -64.608727     -171.465240      -58.669777
 C         -63.127689     -171.839005      -60.661922
 C         -64.163101     -170.954498      -60.013710
 H         -65.389511     -173.207108      -57.777599
 H         -66.297089     -172.752609      -59.260036
 H         -62.906349     -173.926971      -61.112690
 H         -64.315857     -173.359589      -61.603821
 H         -63.747459     -171.295563      -57.929981
 H         -65.472275     -170.805878      -58.354393
 H         -62.887276     -171.428329      -61.637135
 H         -62.226597     -171.865967      -60.101871
 H         -63.658512     -169.975876      -59.794880
 H         -65.016121     -170.688553      -60.628368
