20
 generated by VMD
 C         -48.431206     -133.562317      -47.318523
 N         -48.123482     -133.242249      -48.434055
 H         -49.167206     -134.289536      -44.204136
 H         -48.444309     -133.517029      -46.236786
 C         -49.915688     -134.943802      -43.815346
 C         -50.070747     -136.225510      -44.476517
 C         -50.830532     -134.506836      -42.708977
 C         -50.397488     -137.397217      -43.487698
 C         -51.216648     -135.720215      -41.791157
 C         -51.561760     -136.910858      -42.652775
 H         -49.102669     -136.542175      -44.808296
 H         -50.700012     -136.197281      -45.339611
 H         -50.411415     -133.659546      -42.096542
 H         -51.744900     -134.198761      -43.078163
 H         -49.531605     -137.589859      -42.879925
 H         -50.818462     -138.346817      -43.930187
 H         -52.092419     -135.362915      -41.162327
 H         -50.311447     -135.812637      -41.080151
 H         -51.866264     -137.665237      -41.867840
 H         -52.450459     -136.740921      -43.172508
