20
 generated by VMD
 C          -3.459829      -17.371605        2.247907
 N          -3.211127      -18.414230        1.932632
 H          -5.514498      -20.268032        0.600962
 H          -5.951932      -20.766304       -0.989341
 C          -6.097490      -19.960335       -0.280232
 C          -5.388641      -18.766544       -0.837993
 C          -7.545619      -19.841740        0.005831
 C          -6.190934      -18.194084       -1.985461
 C          -8.321120      -19.450373       -1.237737
 C          -7.669063      -18.125557       -1.744778
 H          -4.360640      -19.098955       -1.047584
 H          -5.367177      -17.971846       -0.031995
 H          -7.919460      -20.771524        0.289955
 H          -7.615685      -19.049580        0.734888
 H          -6.066061      -18.862988       -2.759799
 H          -5.839409      -17.190180       -2.241954
 H          -9.370296      -19.272125       -1.022024
 H          -8.229194      -20.247368       -1.966516
 H          -8.190334      -17.790865       -2.652018
 H          -7.815171      -17.363106       -0.950380
