20
 generated by VMD
 C         -12.978179      -30.168983       -8.370887
 N         -13.878798      -30.456444       -8.971214
 H         -10.860047      -30.938486       -5.136916
 H         -10.835667      -31.657358       -3.407184
 C         -10.739635      -31.868195       -4.527237
 C          -9.411943      -32.451332       -4.810010
 C         -11.940344      -32.851814       -4.904323
 C          -9.261271      -33.852512       -4.247880
 C         -11.786976      -34.312546       -4.270495
 C         -10.409925      -34.877018       -4.450161
 H          -8.608999      -31.787525       -4.312981
 H          -9.284575      -32.517006       -5.885012
 H         -12.925432      -32.481884       -4.613217
 H         -11.885579      -33.096729       -5.967054
 H          -9.227974      -33.658924       -3.203332
 H          -8.361738      -34.325760       -4.630581
 H         -12.489839      -35.002728       -4.718514
 H         -11.999186      -34.164867       -3.218443
 H         -10.249573      -35.761211       -3.801583
 H         -10.406503      -35.176914       -5.514536
