20
 generated by VMD
 C         -31.710358      -78.825836      -26.468908
 N         -31.064735      -78.003296      -26.971195
 H         -28.633041      -80.807396      -25.074175
 H         -32.348675      -79.310013      -25.826406
 C         -28.851353      -81.030113      -24.103802
 C         -27.694744      -80.867661      -23.259003
 C         -29.976915      -81.939087      -23.722593
 C         -27.772058      -81.108482      -21.751329
 C         -30.132904      -82.202827      -22.189409
 C         -28.745415      -82.349129      -21.481937
 H         -27.140701      -79.934074      -23.499750
 H         -27.027170      -81.746719      -23.606817
 H         -30.843252      -81.604767      -24.164572
 H         -29.908960      -82.999001      -24.072941
 H         -28.134825      -80.227013      -21.288618
 H         -26.790113      -81.300453      -21.228363
 H         -30.675859      -83.137276      -21.976336
 H         -30.618868      -81.368202      -21.733076
 H         -28.770153      -82.535690      -20.374418
 H         -28.350578      -83.222633      -22.001215
