20
 generated by VMD
 C         -10.623888      -33.379513       -9.495105
 N         -10.885137      -32.569263       -8.800280
 H         -12.073615      -36.048512       -7.981792
 H         -12.428867      -35.650829       -6.277043
 C         -12.504614      -36.450626       -7.055320
 C         -11.786756      -37.621910       -6.423109
 C         -13.971989      -36.693974       -7.282027
 C         -12.563040      -38.157387       -5.208031
 C         -14.689648      -37.180614       -6.026550
 C         -14.046805      -38.424374       -5.459969
 H         -10.743905      -37.356663       -6.127516
 H         -11.782163      -38.416862       -7.147114
 H         -14.488399      -35.769684       -7.663997
 H         -14.034537      -37.530121       -7.970671
 H         -12.424459      -37.336960       -4.502873
 H         -12.108784      -39.006512       -4.824084
 H         -15.781228      -37.293304       -6.235136
 H         -14.615685      -36.389072       -5.231483
 H         -14.578273      -38.531639       -4.459257
 H         -14.196729      -39.340702       -6.026978
