20
 generated by VMD
 C         -13.736438      -42.833607       -5.943920
 N         -12.890073      -43.259258       -6.512027
 H         -15.067699      -45.157166       -8.878868
 H         -14.330328      -43.901142       -9.790033
 C         -15.273989      -44.478111       -9.728292
 C         -16.414719      -43.592812       -9.338618
 C         -15.361514      -45.198051      -11.122147
 C         -16.899719      -42.724720      -10.508614
 C         -15.821635      -44.280331      -12.214612
 C         -17.093130      -43.558258      -11.780623
 H         -16.091108      -42.983246       -8.492936
 H         -17.307163      -44.218124       -9.020832
 H         -14.407703      -45.660992      -11.381488
 H         -16.087435      -46.078239      -11.054254
 H         -16.187967      -41.935131      -10.731214
 H         -17.858231      -42.259754      -10.277889
 H         -16.089636      -44.888863      -13.069162
 H         -15.098269      -43.503605      -12.592216
 H         -17.495909      -42.904110      -12.521294
 H         -17.830772      -44.346001      -11.624019
