20
 generated by VMD
 C         -19.843904      -57.470558      -16.837160
 N         -19.216534      -57.894527      -17.722565
 H         -22.724258      -59.429691      -16.882872
 H         -20.724232      -56.981281      -16.204006
 C         -22.649900      -60.447361      -16.476894
 C         -23.919592      -61.197998      -16.400536
 C         -21.373125      -60.873398      -15.906671
 C         -23.723034      -62.636555      -15.951728
 C         -21.382830      -62.238602      -15.073381
 C         -22.774679      -62.775822      -14.725244
 H         -24.613472      -61.003929      -17.195604
 H         -24.485518      -60.657696      -15.629409
 H         -20.578928      -60.937149      -16.698122
 H         -20.969563      -60.157658      -15.189849
 H         -23.442341      -63.324848      -16.763599
 H         -24.714279      -63.048550      -15.610670
 H         -20.785151      -62.239925      -14.139937
 H         -20.988344      -62.868320      -15.838881
 H         -22.600702      -63.896198      -14.568668
 H         -23.174530      -62.397350      -13.771383
