20
 generated by VMD
 C         -22.666111      -68.298531      -16.659063
 N         -22.529726      -68.895355      -15.665406
 H         -24.201439      -66.559052      -18.022652
 H         -22.612186      -67.753975      -17.686005
 C         -24.581154      -66.788116      -19.036501
 C         -23.833794      -67.315781      -20.251581
 C         -26.096142      -66.774513      -19.060297
 C         -24.518143      -68.784248      -20.440529
 C         -26.571192      -68.206245      -19.198587
 C         -26.103594      -68.890457      -20.425688
 H         -22.759630      -67.439957      -19.935465
 H         -24.042515      -66.730301      -21.055696
 H         -26.712622      -66.218422      -18.230698
 H         -26.484711      -66.329117      -20.043713
 H         -24.008410      -69.363472      -19.598717
 H         -24.110394      -69.200371      -21.372007
 H         -27.692759      -68.330124      -19.378471
 H         -26.433844      -68.828812      -18.285255
 H         -26.418566      -69.948090      -20.333317
 H         -26.349590      -68.400520      -21.381182
