20
 generated by VMD
 C         -49.986725     -143.061310      -44.831516
 N         -49.081673     -143.357819      -45.478664
 H         -51.927925     -140.793304      -45.423485
 H         -50.936069     -142.938065      -44.331551
 C         -52.629436     -141.155701      -46.174644
 C         -52.095482     -141.187256      -47.696308
 C         -54.090366     -140.865570      -46.043510
 C         -52.986080     -142.166443      -48.470158
 C         -54.952778     -141.756912      -46.977478
 C         -54.487297     -141.789001      -48.398369
 H         -51.030823     -141.585022      -47.833889
 H         -52.164253     -140.262848      -48.292931
 H         -54.390083     -141.135895      -44.980923
 H         -54.149025     -139.669769      -46.258224
 H         -52.886749     -143.133667      -48.099525
 H         -52.551353     -142.162262      -49.454140
 H         -55.991962     -141.426285      -47.094093
 H         -55.029556     -142.735031      -46.518425
 H         -55.097485     -142.435089      -49.027287
 H         -54.827785     -140.882172      -48.877148
