20
 generated by VMD
 C         -30.776674      -78.060600      -25.879538
 N         -31.836208      -77.653008      -26.024084
 H         -29.265463      -77.830475      -22.848240
 H         -29.940454      -78.423676      -25.360064
 C         -28.919386      -78.879822      -22.930817
 C         -27.520582      -79.204330      -23.318575
 C         -29.669437      -80.099327      -22.596247
 C         -26.746536      -79.853134      -22.188948
 C         -29.001692      -80.873520      -21.446213
 C         -27.527870      -81.056053      -21.490574
 H         -26.924395      -78.249809      -23.489527
 H         -27.682325      -79.910912      -24.225515
 H         -30.688061      -79.910194      -22.363071
 H         -29.627081      -80.653145      -23.595541
 H         -26.507349      -79.158073      -21.382280
 H         -25.684919      -80.153252      -22.544149
 H         -29.514084      -81.889610      -21.257330
 H         -29.249943      -80.323662      -20.523769
 H         -27.146315      -81.210686      -20.516010
 H         -27.328623      -81.951805      -21.977329
