20
 generated by VMD
 C         -58.400635     -160.117523      -57.020573
 N         -58.631042     -159.860092      -58.091888
 H         -58.775120     -162.866455      -54.741280
 H         -58.250038     -160.340408      -55.976295
 C         -59.683327     -163.138184      -54.183445
 C         -59.497227     -163.097900      -52.672363
 C         -61.033806     -163.160751      -54.775288
 C         -60.287289     -162.029678      -52.047890
 C         -61.902431     -162.253662      -53.969738
 C         -61.760834     -162.297989      -52.457771
 H         -58.455807     -162.962769      -52.519333
 H         -59.689205     -164.029831      -52.248589
 H         -61.046185     -162.941940      -55.907497
 H         -61.367874     -164.169052      -54.800392
 H         -59.918655     -161.059296      -52.354366
 H         -60.215672     -162.152023      -50.904697
 H         -63.011082     -162.415024      -54.212959
 H         -61.574261     -161.145248      -54.342072
 H         -62.301723     -161.424438      -52.035294
 H         -62.124428     -163.165482      -51.965553
