20
 generated by VMD
 C         -49.724094     -127.761711      -39.014122
 N         -49.729847     -126.705978      -38.560184
 H         -47.081203     -125.830788      -40.850441
 H         -49.424477     -128.680298      -39.534130
 C         -46.224388     -125.158310      -40.860153
 C         -44.895061     -125.546211      -40.345016
 C         -46.351318     -123.670273      -40.910088
 C         -43.680130     -124.839661      -40.989017
 C         -45.122002     -122.937691      -41.565948
 C         -43.881893     -123.306473      -40.790226
 H         -44.755360     -126.609268      -40.561146
 H         -44.930428     -125.377327      -39.307228
 H         -47.308311     -123.516731      -41.397388
 H         -46.601681     -123.312019      -39.791298
 H         -43.455914     -125.204277      -42.001415
 H         -42.809601     -125.139450      -40.384586
 H         -45.442463     -121.824799      -41.402088
 H         -45.183037     -123.046730      -42.680595
 H         -43.043266     -122.705238      -41.189945
 H         -43.942547     -123.087326      -39.687931
