20
 generated by VMD
 C          -1.408524      -10.448056        1.219422
 N          -0.826969      -11.401585        1.475711
 H          -3.779455      -13.210974        0.023843
 H          -5.278091      -12.795574        0.975275
 C          -4.557166      -13.584461        0.740288
 C          -3.797355      -13.819239        2.072921
 C          -5.428549      -14.728971        0.295749
 C          -4.686200      -14.530916        3.150625
 C          -6.332745      -15.223527        1.386201
 C          -5.529345      -15.659517        2.587079
 H          -3.325897      -12.930525        2.555563
 H          -2.927090      -14.524250        1.995815
 H          -5.984237      -14.349003       -0.529363
 H          -4.785366      -15.505849        0.064648
 H          -5.377348      -13.762655        3.615444
 H          -4.073882      -14.960294        3.987010
 H          -6.774464      -16.151300        0.986565
 H          -7.150927      -14.488537        1.656079
 H          -6.202756      -16.055046        3.309898
 H          -4.894881      -16.455326        2.275097
