20
 generated by VMD
 C         -30.804214      -77.958382      -25.615047
 N         -31.798279      -77.717552      -26.195032
 H         -29.294834      -78.146828      -22.780363
 H         -29.725744      -78.276657      -25.441587
 C         -28.920313      -79.099648      -23.085817
 C         -27.480343      -79.317894      -23.378939
 C         -29.716433      -80.228531      -22.652498
 C         -26.770861      -79.825073      -22.130754
 C         -29.106277      -80.888168      -21.445763
 C         -27.561554      -81.060249      -21.516907
 H         -26.904808      -78.348862      -23.651575
 H         -27.522573      -80.103638      -24.194733
 H         -30.755865      -79.868782      -22.442072
 H         -29.736668      -80.864616      -23.506433
 H         -26.800571      -79.122063      -21.270756
 H         -25.650005      -79.992912      -22.330608
 H         -29.621460      -81.838272      -21.101500
 H         -29.313108      -80.274132      -20.566826
 H         -27.117060      -81.369453      -20.614380
 H         -27.378500      -81.912598      -22.197060
