20
 generated by VMD
 C         -23.114710      -54.976021      -16.798193
 N         -23.700748      -55.104210      -15.775956
 H         -19.863302      -55.325302      -15.282903
 H         -22.509457      -55.156967      -17.594423
 C         -19.187355      -55.971760      -14.768394
 C         -19.368715      -55.872356      -13.305076
 C         -18.481113      -57.229256      -15.239428
 C         -20.227947      -57.049511      -12.887183
 C         -19.021177      -58.451309      -14.655863
 C         -19.794142      -58.371922      -13.372809
 H         -19.825926      -54.891182      -12.985658
 H         -18.354815      -56.059322      -12.873313
 H         -18.595089      -57.312977      -16.360188
 H         -17.408855      -57.029980      -14.933928
 H         -21.241890      -56.900711      -13.311940
 H         -20.426069      -57.016869      -11.835611
 H         -18.162952      -59.146420      -14.531014
 H         -19.636597      -58.933594      -15.377335
 H         -20.674858      -59.060345      -13.341632
 H         -19.133444      -58.766579      -12.598884
