20
 generated by VMD
 C         -16.821199      -47.817043       -7.224650
 N         -16.415825      -46.785534       -7.157130
 H         -16.801891      -48.547462      -10.306612
 H         -15.480545      -48.397072      -11.372067
 C         -16.431417      -47.947536      -11.097266
 C         -16.226665      -46.465420      -10.675725
 C         -17.425062      -47.896473      -12.249196
 C         -15.739307      -45.523632      -11.807373
 C         -17.126364      -46.832195      -13.318538
 C         -16.811945      -45.415218      -12.891376
 H         -15.511927      -46.409588       -9.829603
 H         -17.184837      -46.032391      -10.291862
 H         -17.582649      -48.857609      -12.725646
 H         -18.363884      -47.544804      -11.761647
 H         -14.779143      -45.848705      -12.271243
 H         -15.675768      -44.520992      -11.363019
 H         -18.072731      -46.866859      -13.914092
 H         -16.289804      -47.157848      -13.980202
 H         -16.478514      -44.788712      -13.727233
 H         -17.687159      -45.016956      -12.328128
