20
 generated by VMD
 C         -35.134838      -97.857864      -26.020136
 N         -36.182041      -97.514656      -26.399082
 H         -35.656532      -95.194565      -27.881577
 H         -34.220013      -98.250885      -25.453087
 C         -35.314468      -95.005402      -28.886417
 C         -35.875645      -95.833939      -30.027428
 C         -34.079315      -94.104424      -29.023705
 C         -35.609859      -95.090263      -31.389051
 C         -33.773769      -93.527893      -30.388861
 C         -34.148724      -94.559074      -31.468105
 H         -36.995365      -95.854034      -29.836117
 H         -35.512604      -96.908134      -30.003155
 H         -34.056416      -93.304344      -28.203362
 H         -33.212952      -94.723824      -28.795248
 H         -36.357418      -94.318665      -31.573942
 H         -35.804787      -95.838791      -32.114796
 H         -32.691696      -93.299530      -30.621643
 H         -34.355888      -92.686157      -30.501406
 H         -34.067608      -94.115265      -32.403915
 H         -33.391403      -95.464241      -31.404770
