20
 generated by VMD
 C         -10.590248      -33.056416       -8.848517
 N         -11.007783      -33.930466       -9.347123
 H         -12.998114      -34.041832       -6.476125
 H         -13.091916      -34.521553       -4.786983
 C         -12.995184      -34.908699       -5.797884
 C         -11.744773      -35.701397       -6.076362
 C         -14.207562      -35.792274       -6.256647
 C         -11.681023      -37.109261       -5.503791
 C         -14.209544      -37.268250       -5.820780
 C         -12.846625      -37.913734       -6.164696
 H         -10.881926      -35.230198       -5.662927
 H         -11.576361      -35.787640       -7.156507
 H         -15.109990      -35.322216       -5.781086
 H         -14.377510      -35.745514       -7.328667
 H         -11.786139      -37.032261       -4.373351
 H         -10.732203      -37.564552       -5.824747
 H         -15.040343      -37.860603       -6.289126
 H         -14.305006      -37.283958       -4.772531
 H         -12.793704      -38.926689       -5.824536
 H         -12.741177      -37.956985       -7.264911
