20
 generated by VMD
 C         -37.915855     -114.240211      -35.298775
 N         -38.616062     -115.127502      -35.101883
 H         -41.435738     -115.342484      -36.641861
 H         -37.278557     -113.489319      -35.694710
 C         -42.534866     -115.084641      -36.846409
 C         -42.841122     -114.963814      -38.310921
 C         -43.466930     -114.943726      -35.721874
 C         -44.012608     -115.888893      -38.523445
 C         -44.842316     -115.652977      -36.015972
 C         -45.224163     -115.515083      -37.554295
 H         -41.982052     -115.085999      -38.980076
 H         -43.061523     -113.919777      -38.484753
 H         -43.124020     -115.552277      -34.867504
 H         -43.666969     -113.859535      -35.583916
 H         -43.787018     -117.008087      -38.370209
 H         -44.426315     -115.845978      -39.533043
 H         -45.543400     -115.172951      -35.353954
 H         -44.784412     -116.717781      -35.967888
 H         -46.043659     -116.127914      -37.831837
 H         -45.652603     -114.570488      -37.610161
