20
 generated by VMD
 C         -70.288918     -182.698746      -65.297028
 N         -70.800270     -183.709091      -65.575722
 H         -68.274017     -181.443893      -62.924423
 H         -69.888969     -181.743286      -65.064362
 C         -67.585968     -181.498917      -62.028576
 C         -67.710480     -182.763382      -61.123768
 C         -66.947784     -180.194717      -61.448509
 C         -66.475662     -182.844940      -60.173546
 C         -65.845482     -180.510544      -60.442383
 C         -66.236526     -181.558197      -59.472736
 H         -67.669342     -183.719681      -61.693920
 H         -68.635437     -182.802948      -60.607700
 H         -66.516998     -179.508194      -62.299011
 H         -67.790092     -179.546524      -60.928707
 H         -65.531021     -183.138168      -60.758286
 H         -66.787903     -183.781219      -59.535271
 H         -65.653877     -179.578598      -59.886894
 H         -64.871468     -180.764145      -60.930191
 H         -65.540421     -181.798126      -58.699173
 H         -67.135628     -181.281738      -58.965359
