20
 generated by VMD
 C         -79.414200     -204.873169      -70.888145
 N         -80.513542     -205.341400      -70.814148
 H         -76.818535     -203.260834      -69.057518
 H         -78.430809     -204.555664      -70.720222
 C         -75.871941     -203.165604      -69.450020
 C         -75.547333     -201.873962      -70.138062
 C         -74.868164     -204.203003      -69.155792
 C         -74.005051     -201.722260      -70.476112
 C         -73.581612     -203.506500      -68.924210
 C         -73.185066     -202.946426      -70.353935
 H         -75.877785     -200.964172      -69.705986
 H         -76.103455     -201.865234      -71.088257
 H         -75.192337     -204.832413      -68.279457
 H         -74.934372     -204.956268      -70.010475
 H         -73.636620     -201.004013      -69.757530
 H         -73.815857     -201.187759      -71.368713
 H         -72.732208     -204.141998      -68.502640
 H         -73.697052     -202.728363      -68.133499
 H         -72.146118     -202.658829      -70.485069
 H         -73.385834     -203.727966      -71.175201
