20
 generated by VMD
 C         -19.362337      -60.545967      -17.893015
 N         -20.023506      -59.622585      -17.841787
 H         -22.831190      -59.987755      -16.088398
 H         -18.975475      -61.554863      -17.807022
 C         -23.131680      -60.986256      -16.107670
 C         -23.424873      -61.680546      -17.335264
 C         -23.503866      -61.700180      -14.811951
 C         -22.584917      -62.915474      -17.295706
 C         -23.137434      -63.192806      -14.875654
 C         -23.179314      -63.887150      -16.305290
 H         -22.972231      -61.105789      -18.101223
 H         -24.456968      -61.864128      -17.389513
 H         -22.833607      -61.303322      -14.006929
 H         -24.525225      -61.343887      -14.501883
 H         -21.530981      -62.634281      -16.974209
 H         -22.613834      -63.382236      -18.329205
 H         -23.605900      -63.760098      -14.052426
 H         -22.107740      -63.374836      -14.505764
 H         -22.668100      -64.805481      -16.294163
 H         -24.238415      -64.046814      -16.418922
