20
 generated by VMD
 C         -60.439854     -169.937347      -55.135529
 N         -59.354317     -169.760529      -55.418995
 H         -63.303650     -170.614899      -56.730152
 H         -61.472157     -170.010178      -54.873127
 C         -63.319668     -169.564514      -56.951065
 C         -62.448303     -169.108719      -58.131462
 C         -64.170303     -168.745438      -56.039581
 C         -63.087185     -167.832520      -58.720547
 C         -64.698242     -167.506088      -56.824745
 C         -63.695896     -166.879654      -57.725842
 H         -62.395252     -169.972275      -58.771797
 H         -61.374378     -168.733215      -57.796783
 H         -65.048958     -169.309296      -55.682632
 H         -63.767216     -168.306702      -55.182606
 H         -63.884182     -168.156219      -59.405975
 H         -62.371487     -167.360275      -59.380779
 H         -64.999016     -166.791733      -56.047398
 H         -65.643013     -167.840973      -57.290127
 H         -64.272964     -166.107986      -58.226894
 H         -62.875782     -166.294083      -57.211784
