20
 generated by VMD
 C         -18.439594      -50.068378       -9.655655
 N         -19.437950      -50.536121       -9.468396
 H         -16.319014      -47.202560      -10.175449
 H         -17.487478      -48.526802      -10.254436
 C         -16.757406      -47.868412      -10.910477
 C         -15.638390      -48.760891      -11.518819
 C         -17.601875      -47.063274      -11.918691
 C         -16.396456      -49.697216      -12.459832
 C         -17.976549      -47.800045      -13.150460
 C         -16.904343      -48.833717      -13.592401
 H         -15.281089      -49.263523      -10.666135
 H         -14.823143      -48.208889      -12.044671
 H         -18.529091      -46.662945      -11.466140
 H         -16.981274      -46.192287      -12.148885
 H         -17.155207      -50.306412      -11.969308
 H         -15.696118      -50.370434      -12.963830
 H         -18.186066      -47.162075      -13.969586
 H         -18.938120      -48.359211      -12.840930
 H         -17.264811      -49.468369      -14.389647
 H         -16.114048      -48.258648      -14.006384
