20
 generated by VMD
 C         -27.480034      -84.592430      -26.370182
 N         -27.878046      -85.518044      -26.891243
 H         -31.147533      -84.914642      -26.013901
 H         -27.025972      -83.733727      -25.816740
 C         -31.926594      -85.620720      -25.755445
 C         -32.342537      -85.902687      -24.329275
 C         -32.210766      -86.592896      -26.867222
 C         -33.465790      -86.861519      -24.187885
 C         -33.527603      -87.451439      -26.726334
 C         -33.472641      -87.992828      -25.293760
 H         -32.612137      -84.950165      -23.962948
 H         -31.502420      -86.277550      -23.723942
 H         -32.426163      -86.003494      -27.762201
 H         -31.438280      -87.325089      -27.065702
 H         -34.370716      -86.271439      -24.252331
 H         -33.231579      -87.264038      -23.141706
 H         -33.470547      -88.263687      -27.561203
 H         -34.387150      -86.801559      -26.886757
 H         -34.294010      -88.700539      -25.124376
 H         -32.515507      -88.549622      -24.956566
