20
 generated by VMD
 C          -6.929317      -23.325722        3.188605
 N          -6.429184      -22.635952        2.444583
 H          -7.221570      -21.897766       -0.329686
 H          -8.534272      -22.090389       -1.342100
 C          -7.549218      -21.748663       -1.317241
 C          -6.706556      -22.573561       -2.287276
 C          -7.413484      -20.269955       -1.550427
 C          -7.041438      -22.209118       -3.762645
 C          -7.791060      -19.872044       -2.965946
 C          -6.989742      -20.671181       -3.961092
 H          -6.722266      -23.656708       -2.159582
 H          -5.572880      -22.407604       -2.083040
 H          -8.062170      -19.704718       -0.773281
 H          -6.327263      -20.033741       -1.477265
 H          -8.061935      -22.522200       -3.814837
 H          -6.366313      -22.692114       -4.473291
 H          -7.572345      -18.790058       -3.101242
 H          -8.850125      -20.165190       -3.066494
 H          -7.197649      -20.352654       -4.964435
 H          -5.976374      -20.407133       -3.755758
