20
 generated by VMD
 C         -28.694532      -81.405304      -27.645367
 N         -29.647177      -80.770569      -27.454939
 H         -28.637583      -82.852234      -24.255159
 H         -27.871782      -81.999435      -27.985100
 C         -29.579908      -83.422768      -24.067820
 C         -29.945230      -83.713539      -22.598703
 C         -30.356592      -84.195473      -25.147930
 C         -31.459063      -84.114723      -22.362740
 C         -31.848038      -84.297760      -24.824820
 C         -31.925711      -85.001793      -23.500349
 H         -29.848883      -82.788498      -22.037453
 H         -29.376282      -84.505669      -22.198965
 H         -30.340864      -83.665482      -26.057865
 H         -29.882101      -85.165749      -25.288811
 H         -32.135960      -83.308983      -22.467117
 H         -31.607267      -84.773720      -21.372780
 H         -32.412560      -84.813065      -25.660339
 H         -32.254608      -83.337318      -24.786943
 H         -32.973171      -85.114166      -23.294416
 H         -31.493830      -86.033592      -23.425903
