20
 generated by VMD
 C         -60.658928     -156.251678      -54.659195
 N         -60.194084     -155.468353      -55.384068
 H         -59.727085     -157.017090      -51.571445
 H         -61.102608     -157.049561      -54.121483
 C         -58.771553     -156.921417      -52.001801
 C         -58.095398     -155.588257      -52.008324
 C         -57.882420     -158.214096      -52.087185
 C         -57.005878     -155.663544      -50.942993
 C         -56.789917     -158.257187      -50.967030
 C         -56.013027     -156.894516      -50.992283
 H         -58.717884     -154.773697      -51.922119
 H         -57.705120     -155.540710      -53.007019
 H         -58.567162     -159.051910      -52.080059
 H         -57.374294     -158.225586      -53.137829
 H         -57.440464     -155.483826      -49.896130
 H         -56.569794     -154.655472      -50.972786
 H         -56.166386     -159.114471      -51.074081
 H         -57.205276     -158.427017      -49.948807
 H         -55.181854     -156.772415      -50.210117
 H         -55.532181     -156.889420      -51.936932
