20
 generated by VMD
 C         -23.432632      -53.219936      -13.092451
 N         -23.201153      -52.606960      -14.070001
 H         -20.685139      -54.871307      -14.406190
 H         -23.606949      -53.480759      -11.842451
 C         -19.509287      -54.698624      -14.106264
 C         -18.955675      -53.331814      -14.106332
 C         -18.539673      -55.879272      -13.886825
 C         -17.856312      -53.208138      -13.025376
 C         -17.119738      -55.613510      -13.404392
 C         -16.694523      -54.180801      -13.306962
 H         -19.757473      -52.614922      -13.875858
 H         -18.555847      -53.093807      -15.094841
 H         -19.037506      -56.649567      -13.189532
 H         -18.498495      -56.355560      -14.891237
 H         -18.257690      -53.360912      -12.020343
 H         -17.522209      -52.149975      -13.096521
 H         -16.405855      -56.141399      -14.130146
 H         -16.999752      -56.154839      -12.476936
 H         -15.966513      -54.051247      -12.551218
 H         -16.309685      -53.953461      -14.295554
