20
 generated by VMD
 C         -49.042419     -126.824913      -38.814762
 N         -49.977638     -127.398148      -38.407269
 H         -46.877037     -124.797966      -39.430470
 H         -48.215900     -126.343285      -39.272472
 C         -45.974129     -124.255470      -39.869392
 C         -44.569927     -124.847351      -39.828094
 C         -45.968075     -122.881927      -40.312012
 C         -43.829464     -124.600952      -41.205387
 C         -45.205997     -122.683899      -41.659584
 C         -43.808918     -123.159142      -41.554699
 H         -44.557949     -125.876076      -39.456291
 H         -43.952770     -124.219696      -39.192165
 H         -46.961708     -122.423553      -40.322590
 H         -45.481232     -122.175400      -39.558178
 H         -44.373608     -125.142715      -41.958897
 H         -42.847263     -125.017303      -41.348579
 H         -45.187454     -121.592079      -42.034267
 H         -45.861103     -123.058403      -42.466099
 H         -43.123840     -122.842133      -42.450096
 H         -43.368107     -122.565887      -40.740871
