20
 generated by VMD
 C         -23.216806      -53.378517      -13.832328
 N         -23.874441      -52.960716      -14.755878
 H         -20.722658      -55.634274      -13.972991
 H         -22.520710      -53.453362      -13.114225
 C         -19.627850      -55.240303      -14.195041
 C         -19.188162      -53.872608      -13.852227
 C         -18.497574      -56.164185      -14.614189
 C         -18.025103      -54.079178      -12.786727
 C         -17.589809      -56.369274      -13.403731
 C         -16.964310      -55.026093      -13.244192
 H         -19.982637      -53.174240      -13.397408
 H         -18.786135      -53.201111      -14.708233
 H         -18.881489      -57.154915      -14.914968
 H         -17.928507      -55.725319      -15.514240
 H         -18.409807      -54.486263      -11.831307
 H         -17.693712      -53.064278      -12.568578
 H         -16.873545      -57.118412      -13.625461
 H         -18.161419      -56.704914      -12.475186
 H         -16.186777      -55.110546      -12.518710
 H         -16.550480      -54.716274      -14.152271
