20
 generated by VMD
 C         -66.198723     -177.908173      -56.890553
 N         -67.245094     -177.458893      -57.083118
 H         -64.193138     -175.646484      -58.587837
 H         -65.241783     -178.339890      -56.707306
 C         -64.341057     -174.853485      -59.341705
 C         -65.545540     -174.048569      -59.174324
 C         -63.421383     -174.501297      -60.491737
 C         -65.248123     -172.591248      -59.163280
 C         -62.967995     -172.965271      -60.250786
 C         -64.369499     -172.187408      -60.294052
 H         -66.137939     -174.250702      -58.273453
 H         -66.221260     -174.375763      -59.974354
 H         -62.519173     -175.270844      -60.603355
 H         -64.054047     -174.670822      -61.403927
 H         -64.817863     -172.250748      -58.211697
 H         -66.114548     -171.946304      -59.198944
 H         -62.333176     -172.652878      -61.113392
 H         -62.422504     -172.697571      -59.333244
 H         -64.059425     -171.166397      -60.210136
 H         -64.924385     -172.177567      -61.273834
