20
 generated by VMD
 C         -40.524254     -106.172646      -37.096390
 N         -39.788918     -106.781105      -37.737545
 H         -38.734894     -107.734123      -34.157867
 H         -41.112854     -105.503540      -36.441891
 C         -39.167130     -108.737366      -34.028347
 C         -38.477615     -109.761948      -33.102104
 C         -40.500607     -108.847824      -34.513214
 C         -39.426300     -110.008926      -32.002342
 C         -41.471668     -109.174034      -33.383915
 C         -40.870369     -110.380447      -32.431900
 H         -37.505432     -109.368858      -32.798248
 H         -38.335800     -110.652115      -33.762508
 H         -40.666317     -107.812340      -34.913204
 H         -40.508942     -109.552727      -35.269363
 H         -39.585304     -109.232994      -31.284338
 H         -38.958504     -110.765556      -31.520370
 H         -42.353725     -109.576904      -33.852570
 H         -41.596485     -108.264420      -32.716179
 H         -41.510429     -110.575836      -31.605480
 H         -40.899689     -111.342934      -33.144371
