20
 generated by VMD
 C         -40.513580     -117.097321      -34.502007
 N         -39.495419     -116.587433      -34.714951
 H         -41.591705     -116.862473      -37.683125
 H         -41.612411     -117.310753      -34.400890
 C         -42.558311     -116.365891      -37.882767
 C         -43.126602     -116.082191      -39.184822
 C         -43.460579     -116.109749      -36.747295
 C         -44.378036     -116.962021      -39.391792
 C         -44.771931     -116.865913      -36.960892
 C         -45.381863     -116.637344      -38.282459
 H         -42.400520     -116.239235      -40.023117
 H         -43.436214     -115.014244      -39.126068
 H         -43.078945     -116.385307      -35.706322
 H         -43.609161     -115.051308      -36.633450
 H         -44.118141     -118.013359      -39.253136
 H         -44.887638     -116.822998      -40.350666
 H         -45.531593     -116.642227      -36.109520
 H         -44.494659     -117.966873      -36.619022
 H         -46.296288     -117.313423      -38.385921
 H         -45.700485     -115.449448      -38.327988
