20
 generated by VMD
 C         -59.919888     -153.160324      -51.272018
 N         -60.493088     -152.154861      -51.631622
 H         -57.097374     -153.367706      -49.315937
 H         -59.335964     -154.054367      -51.137589
 C         -56.366947     -152.854523      -49.945072
 C         -54.947929     -153.160873      -49.608070
 C         -56.686207     -151.498260      -50.369175
 C         -53.774448     -152.517731      -50.418278
 C         -55.671074     -151.179352      -51.418011
 C         -54.180019     -151.144165      -50.749260
 H         -54.842731     -154.201813      -49.546638
 H         -54.724442     -152.751877      -48.619637
 H         -57.710979     -151.494995      -50.708084
 H         -56.646305     -150.771240      -49.500931
 H         -53.525101     -153.100754      -51.333065
 H         -52.854389     -152.571609      -49.846874
 H         -55.825531     -150.174652      -51.768097
 H         -55.511845     -151.870972      -52.252251
 H         -53.433594     -150.834091      -51.466690
 H         -54.053619     -150.460312      -49.938141
