20
 generated by VMD
 C         -40.951302     -101.073090      -32.862972
 N         -42.027683     -101.485924      -32.705799
 H         -38.486118     -103.041145      -32.505787
 H         -39.888031     -100.972771      -32.864517
 C         -37.546349     -102.763084      -32.048363
 C         -36.323208     -102.826927      -32.800121
 C         -37.464447     -102.806099      -30.532314
 C         -35.281193     -101.861984      -32.322380
 C         -36.138504     -102.166893      -30.051798
 C         -34.966640     -102.252960      -30.957018
 H         -36.561344     -102.511513      -33.770123
 H         -35.819103     -103.771980      -32.900902
 H         -38.358219     -102.228348      -30.004137
 H         -37.570908     -103.813126      -30.170116
 H         -35.753105     -100.825615      -32.401165
 H         -34.362896     -101.758881      -32.855152
 H         -35.907043     -102.700027      -29.155758
 H         -36.158031     -101.070175      -29.781311
 H         -34.109955     -101.629944      -30.623095
 H         -34.755207     -103.345100      -30.845354
