20
 generated by VMD
 C         -58.126575     -150.840271      -49.068096
 N         -58.264915     -151.960709      -48.654640
 H         -55.704758     -149.775787      -47.782108
 H         -58.061573     -149.822189      -49.545311
 C         -55.336098     -149.529739      -48.772076
 C         -54.297779     -150.332214      -49.499828
 C         -55.130337     -147.959335      -48.882355
 C         -54.164783     -149.963760      -50.935028
 C         -54.882553     -147.668030      -50.398273
 C         -53.780560     -148.551361      -51.070934
 H         -54.618961     -151.407013      -49.529114
 H         -53.312809     -150.254532      -48.987106
 H         -56.072475     -147.501251      -48.585911
 H         -54.278320     -147.716858      -48.296383
 H         -55.110249     -150.023972      -51.480595
 H         -53.494831     -150.584152      -51.495674
 H         -54.698544     -146.507446      -50.414978
 H         -55.760979     -147.631119      -50.952293
 H         -53.772694     -148.376572      -52.137417
 H         -52.733700     -148.444427      -50.750393
