20
 generated by VMD
 C         -47.330742     -138.585434      -45.651821
 N         -46.996933     -138.339020      -46.778973
 H         -50.525986     -138.212143      -44.788700
 H         -47.668465     -139.064331      -44.737724
 C         -51.524536     -138.538925      -45.064831
 C         -51.654720     -139.080383      -46.395844
 C         -52.818504     -138.175980      -44.272709
 C         -52.865185     -140.016907      -46.700706
 C         -53.933022     -139.269867      -44.474342
 C         -54.204357     -139.513672      -46.003399
 H         -50.729057     -139.577011      -46.591133
 H         -51.645039     -138.214233      -47.148445
 H         -52.565231     -138.113815      -43.241196
 H         -53.177887     -137.272232      -44.643169
 H         -52.588112     -140.969040      -46.189919
 H         -53.154175     -140.292068      -47.758839
 H         -54.866241     -138.956238      -43.841404
 H         -53.638626     -140.233276      -44.149982
 H         -55.054028     -140.284592      -46.045368
 H         -54.346188     -138.542725      -46.414593
