20
 generated by VMD
 C         -70.424187     -196.684143      -65.485916
 N         -69.425194     -196.831161      -66.047615
 H         -73.608070     -195.666672      -65.028793
 H         -71.379562     -196.362244      -64.981567
 C         -73.530922     -195.190277      -65.958130
 C         -73.030014     -193.730530      -66.006599
 C         -74.528114     -195.619293      -67.015900
 C         -72.412552     -193.597183      -67.320717
 C         -74.137573     -195.049683      -68.373222
 C         -73.485405     -193.551758      -68.371109
 H         -72.268364     -193.554321      -65.202614
 H         -73.787628     -193.078217      -65.808578
 H         -74.619995     -196.691208      -67.028877
 H         -75.532333     -195.186188      -66.770424
 H         -71.728249     -194.391174      -67.511154
 H         -71.800499     -192.719955      -67.437637
 H         -74.957664     -195.144699      -69.076599
 H         -73.328590     -195.672470      -68.814552
 H         -73.162971     -193.405487      -69.367996
 H         -74.380127     -192.797287      -68.166687
