20
 generated by VMD
 C         -68.588181     -185.431412      -67.120049
 N         -67.657181     -185.084381      -66.524147
 H         -69.351593     -187.462479      -64.894867
 H         -69.556252     -185.662857      -67.648666
 C         -69.602142     -187.173935      -63.911407
 C         -70.053711     -185.808487      -63.628475
 C         -69.680962     -188.332840      -62.988983
 C         -69.716423     -185.364929      -62.215954
 C         -69.661194     -187.914993      -61.473557
 C         -70.145630     -186.334717      -61.171505
 H         -71.140121     -185.784927      -63.932449
 H         -69.416634     -185.200912      -64.384308
 H         -70.725945     -188.737549      -63.213409
 H         -68.883362     -189.130142      -63.041515
 H         -70.210953     -184.406082      -62.061329
 H         -68.581154     -185.257446      -62.136421
 H         -68.688393     -187.966751      -61.076313
 H         -70.266800     -188.628052      -60.901615
 H         -71.316673     -186.546783      -61.355465
 H         -69.943542     -186.036758      -60.097145
