20
 generated by VMD
 C         -57.275169     -150.954300      -48.462311
 N         -58.339226     -151.324051      -48.527370
 H         -54.146114     -148.863937      -47.250443
 H         -56.239403     -150.687363      -48.286091
 C         -54.440765     -148.683380      -48.268627
 C         -53.722527     -149.604370      -49.338444
 C         -54.568287     -147.212006      -48.790867
 C         -54.346157     -149.531082      -50.715717
 C         -55.167763     -147.071884      -50.251278
 C         -54.454613     -147.951996      -51.203560
 H         -53.538807     -150.644012      -49.116001
 H         -52.798237     -149.072662      -49.426052
 H         -55.058620     -146.519196      -48.014465
 H         -53.563557     -146.832779      -48.908195
 H         -55.375614     -149.895462      -50.810127
 H         -53.756763     -150.122421      -51.404335
 H         -55.309128     -145.907547      -50.552708
 H         -56.142860     -147.447388      -50.295799
 H         -54.920288     -148.043610      -52.174355
 H         -53.500877     -147.690033      -51.511925
