20
 generated by VMD
 C         -50.807281     -129.669342      -45.269596
 N         -50.952751     -129.626205      -44.157146
 H         -49.022217     -128.936127      -42.154770
 H         -50.761063     -129.524612      -46.343636
 C         -48.223648     -129.126907      -41.551521
 C         -47.940609     -130.551910      -41.280418
 C         -47.318295     -127.952911      -41.194481
 C         -46.449043     -130.879227      -41.353935
 C         -45.863022     -128.353745      -41.354176
 C         -45.677288     -129.730225      -40.689404
 H         -48.519211     -131.207092      -41.918869
 H         -48.262226     -130.827271      -40.278622
 H         -47.583187     -127.153099      -41.863953
 H         -47.630516     -127.706139      -40.149467
 H         -46.196518     -130.915695      -42.458069
 H         -46.318130     -131.794144      -40.676311
 H         -45.256321     -127.568932      -40.877426
 H         -45.661003     -128.309158      -42.499195
 H         -44.623894     -129.870819      -40.651844
 H         -45.944763     -129.688583      -39.591732
