20
 generated by VMD
 C         -41.952621     -101.846481      -33.590076
 N         -40.861584     -101.823669      -33.913002
 H         -39.243340     -103.788528      -32.463921
 H         -42.926834     -101.539284      -33.455967
 C         -38.147106     -103.695229      -32.273251
 C         -36.895226     -103.635567      -33.074711
 C         -37.980488     -104.238937      -30.857595
 C         -35.762691     -102.853966      -32.392441
 C         -36.697247     -103.711502      -30.207792
 C         -35.357395     -103.504196      -31.047625
 H         -37.233913     -103.024094      -33.890381
 H         -36.564045     -104.607719      -33.401257
 H         -38.966263     -103.918327      -30.385399
 H         -37.950996     -105.288437      -30.947369
 H         -36.066864     -101.794098      -32.164013
 H         -34.884735     -102.815872      -33.096626
 H         -36.470173     -104.469566      -29.463503
 H         -36.829063     -102.737053      -29.653564
 H         -34.611637     -103.000244      -30.428545
 H         -34.917027     -104.498581      -31.286716
