20
 generated by VMD
 C         -60.808586     -153.269226      -52.338341
 N         -60.952671     -153.366760      -51.244263
 H         -57.470955     -153.984573      -51.025467
 H         -60.686028     -153.349258      -53.412529
 C         -56.602108     -153.395950      -50.739464
 C         -55.790646     -153.776749      -49.568596
 C         -56.390911     -152.015915      -51.404259
 C         -54.334133     -153.342636      -49.842140
 C         -54.885387     -151.864059      -51.777977
 C         -54.217175     -151.902588      -50.435089
 H         -55.891346     -154.851013      -49.396313
 H         -56.137585     -153.331360      -48.606358
 H         -56.900589     -152.157959      -52.360271
 H         -56.826260     -151.169174      -50.812996
 H         -53.903763     -154.077240      -50.507767
 H         -53.642563     -153.353745      -49.029800
 H         -54.749413     -150.788651      -52.292503
 H         -54.599674     -152.641846      -52.476318
 H         -53.152756     -151.591934      -50.474064
 H         -54.741760     -151.165207      -49.873432
