20
 generated by VMD
 C         -31.006096      -74.840393      -22.560926
 N         -31.206814      -75.645271      -21.730936
 H         -28.615053      -77.517792      -21.039070
 H         -30.650740      -74.453430      -23.585257
 C         -27.745337      -76.938187      -21.384935
 C         -26.696424      -77.728226      -22.115576
 C         -27.296648      -75.708397      -20.603022
 C         -25.769981      -76.735039      -22.976662
 C         -26.514263      -74.756279      -21.547424
 C         -25.274002      -75.560669      -22.148371
 H         -27.274307      -78.397026      -22.713097
 H         -26.096130      -78.335045      -21.370224
 H         -28.333332      -75.231689      -20.239496
 H         -26.659616      -75.966850      -19.714710
 H         -26.339613      -76.373047      -23.797890
 H         -24.915310      -77.263794      -23.391945
 H         -26.104979      -73.931541      -20.935020
 H         -27.221920      -74.419090      -22.268408
 H         -24.684460      -74.837029      -22.691685
 H         -24.574087      -76.017960      -21.423992
