20
 generated by VMD
 C         -19.690037      -60.256172      -17.818464
 N         -19.686640      -59.088020      -17.996738
 H         -22.837048      -59.843025      -15.978970
 H         -19.933939      -61.197140      -17.485325
 C         -22.881781      -60.889816      -15.976200
 C         -23.333700      -61.564407      -17.255766
 C         -23.387375      -61.621906      -14.826551
 C         -22.755341      -62.935066      -17.230494
 C         -22.719656      -63.031364      -14.773356
 C         -23.269156      -63.737110      -16.015211
 H         -22.886667      -61.089497      -18.116722
 H         -24.381727      -61.384525      -17.485584
 H         -23.188744      -61.021332      -13.883536
 H         -24.448494      -61.653240      -14.688370
 H         -21.692162      -62.812225      -17.155218
 H         -23.062080      -63.484406      -18.140200
 H         -22.915665      -63.542145      -13.790816
 H         -21.630440      -62.892452      -14.800517
 H         -22.815998      -64.806686      -16.111868
 H         -24.357412      -63.912327      -16.052023
