20
 generated by VMD
 C         -69.296089     -180.346237      -59.767632
 N         -68.782585     -181.170639      -60.434486
 H         -67.153580     -177.726196      -59.809021
 H         -69.855606     -179.648834      -59.092342
 C         -66.380798     -176.965225      -59.862625
 C         -65.934196     -176.750900      -61.362862
 C         -65.317062     -176.869553      -58.841000
 C         -64.872093     -175.758133      -61.618675
 C         -64.112694     -176.146606      -59.201149
 C         -63.727741     -176.092270      -60.643673
 H         -66.834763     -176.560715      -61.939941
 H         -65.738510     -177.781723      -61.755123
 H         -65.751312     -176.477524      -57.919720
 H         -65.062386     -177.974701      -58.672062
 H         -65.314369     -174.694931      -61.494892
 H         -64.484596     -175.871292      -62.707241
 H         -63.267593     -176.497238      -58.539425
 H         -64.425934     -175.101212      -58.994762
 H         -63.001755     -175.352371      -60.911064
 H         -63.196819     -177.046692      -60.918362
