20
 generated by VMD
 C         -68.940010     -195.691238      -64.804810
 N         -68.598244     -196.750092      -65.105171
 H         -71.434311     -194.447525      -66.069061
 H         -69.184433     -194.708771      -64.483490
 C         -72.154671     -193.928055      -66.715073
 C         -72.208656     -192.457932      -66.755745
 C         -73.149712     -194.627777      -67.553734
 C         -73.578377     -191.923325      -66.370934
 C         -74.543655     -194.191772      -67.087120
 C         -74.665634     -192.599045      -67.144150
 H         -71.730316     -192.006943      -67.700218
 H         -71.507156     -191.918945      -66.002899
 H         -73.167694     -194.439484      -68.705399
 H         -73.032234     -195.808029      -67.510445
 H         -73.736855     -190.855896      -66.451965
 H         -73.613586     -192.053619      -65.312439
 H         -74.725128     -194.500427      -66.075081
 H         -75.318367     -194.647034      -67.735741
 H         -74.487099     -192.386124      -68.294327
 H         -75.592697     -192.245102      -66.994240
