20
 generated by VMD
 C         -67.565292     -179.861786      -58.450340
 N         -68.282143     -179.892014      -59.336948
 H         -67.364769     -176.861465      -60.065357
 H         -66.932594     -179.772186      -57.569828
 C         -66.398819     -176.357925      -60.123505
 C         -66.016541     -175.593307      -61.382984
 C         -65.292328     -176.879501      -59.280972
 C         -64.863953     -174.582001      -61.190285
 C         -64.121155     -175.883942      -59.240070
 C         -63.726730     -175.336288      -60.561790
 H         -66.962685     -175.128586      -61.805450
 H         -65.592064     -176.303513      -62.041695
 H         -65.485207     -177.188110      -58.186653
 H         -64.863792     -177.737427      -59.859745
 H         -65.303352     -173.850983      -60.492779
 H         -64.456390     -173.984070      -62.158146
 H         -63.240482     -176.237244      -58.688892
 H         -64.429626     -175.045303      -58.575619
 H         -62.966309     -174.524887      -60.390991
 H         -63.472755     -176.132431      -61.216644
