20
 generated by VMD
 C         -29.346031      -73.453003      -19.310545
 N         -29.736984      -74.490585      -18.963871
 H         -25.721468      -73.215981      -18.844326
 H         -28.963379      -72.404915      -19.693649
 C         -25.458584      -72.968102      -19.924395
 C         -24.914148      -73.970665      -20.772869
 C         -25.562101      -71.559990      -20.407225
 C         -25.547068      -73.974037      -22.105747
 C         -26.292763      -71.551247      -21.797482
 C         -25.689793      -72.653816      -22.749001
 H         -25.220615      -74.953018      -20.409401
 H         -23.783314      -73.875298      -20.929041
 H         -26.187551      -71.081352      -19.630903
 H         -24.578701      -71.038773      -20.523981
 H         -26.564058      -74.412392      -22.088091
 H         -24.827497      -74.577560      -22.677820
 H         -26.088535      -70.644661      -22.322313
 H         -27.335455      -71.656235      -21.690514
 H         -26.354425      -72.599915      -23.633488
 H         -24.656628      -72.313477      -23.105913
