20
 generated by VMD
 C         -40.523266     -118.783745      -35.553905
 N         -39.576004     -118.389435      -35.004074
 H         -43.621765     -116.601547      -35.987072
 H         -41.279202     -119.470520      -35.975933
 C         -43.964649     -116.997520      -36.956150
 C         -42.995796     -117.454384      -38.036617
 C         -45.133652     -116.294563      -37.492226
 C         -43.706020     -118.206894      -39.222980
 C         -45.900455     -117.060524      -38.524506
 C         -45.013802     -117.588028      -39.719200
 H         -42.171730     -117.909676      -37.530861
 H         -42.675720     -116.531715      -38.500896
 H         -45.855293     -116.024384      -36.764965
 H         -44.936596     -115.310371      -38.039467
 H         -43.971718     -119.244461      -38.890553
 H         -42.861935     -118.400780      -39.867149
 H         -46.728027     -116.479752      -38.909271
 H         -46.463516     -118.057365      -38.226559
 H         -45.514805     -118.250092      -40.403343
 H         -44.676525     -116.672867      -40.464146
