20
 generated by VMD
 C         -23.531237      -55.045631      -14.990932
 N         -22.706961      -54.777889      -15.853910
 H         -20.249557      -54.644978      -15.368406
 H         -24.096308      -55.383354      -14.244783
 C         -19.448372      -55.239189      -14.864338
 C         -19.027109      -54.823986      -13.536364
 C         -18.963940      -56.569412      -15.349665
 C         -19.023514      -56.023678      -12.566147
 C         -19.466248      -57.589870      -14.401822
 C         -18.582523      -57.357990      -13.121895
 H         -19.711588      -54.097771      -13.110020
 H         -18.092539      -54.348545      -13.672993
 H         -19.317404      -56.842384      -16.378704
 H         -17.918734      -56.472473      -15.365330
 H         -20.080156      -56.176094      -12.238293
 H         -18.469681      -55.766827      -11.701142
 H         -19.289230      -58.624783      -14.800092
 H         -20.553776      -57.469257      -14.182525
 H         -18.771839      -58.230907      -12.478344
 H         -17.546064      -57.459358      -13.318371
