20
 generated by VMD
 C         -77.494995     -203.143890      -68.299492
 N         -77.741676     -204.128479      -67.758545
 H         -74.466171     -200.952850      -67.008888
 H         -77.334747     -202.373276      -68.992592
 C         -74.332336     -200.723694      -68.052505
 C         -75.052185     -199.603195      -68.629776
 C         -73.973877     -201.663925      -69.178925
 C         -74.298828     -198.732529      -69.704414
 C         -73.064331     -200.968185      -70.291847
 C         -73.614738     -199.654312      -70.836029
 H         -75.292564     -198.905472      -67.783287
 H         -75.955643     -199.853104      -69.072182
 H         -73.457962     -202.567459      -68.952904
 H         -74.917938     -201.909164      -69.742706
 H         -73.586128     -198.239136      -69.069489
 H         -75.032845     -198.039093      -70.138252
 H         -72.916695     -201.688400      -71.040504
 H         -72.101006     -200.683121      -69.946869
 H         -72.735588     -199.130737      -71.393242
 H         -74.308151     -199.957047      -71.544983
