20
 generated by VMD
 C         -13.238845      -31.012394       -8.266962
 N         -12.836311      -30.079615       -8.683951
 H         -11.345678      -32.297817       -6.731065
 H         -11.790910      -32.181004       -5.032057
 C         -11.367923      -32.900089       -5.749084
 C          -9.964740      -33.133316       -5.320040
 C         -12.152765      -34.233788       -5.717099
 C          -9.852111      -33.900547       -4.057397
 C         -12.082892      -35.032341       -4.413010
 C         -10.669025      -35.165184       -4.013172
 H          -9.387304      -32.191360       -5.178716
 H          -9.388261      -33.606743       -6.122578
 H         -13.186789      -34.052898       -6.074910
 H         -11.745095      -34.882065       -6.511564
 H         -10.201909      -33.328316       -3.234497
 H          -8.822101      -34.011456       -3.781875
 H         -12.594845      -36.028259       -4.566445
 H         -12.608609      -34.608814       -3.603110
 H         -10.566421      -35.764912       -3.094216
 H         -10.240853      -35.817104       -4.766318
