20
 generated by VMD
 C         -65.528458     -177.624298      -56.623344
 N         -66.120789     -176.741180      -56.197239
 H         -64.553734     -175.319031      -59.121887
 H         -64.969307     -178.410461      -57.167747
 C         -64.453079     -174.260300      -59.393250
 C         -65.482964     -173.344482      -58.840988
 C         -63.538574     -173.891388      -60.430481
 C         -64.986252     -171.854126      -58.776001
 C         -63.138382     -172.479095      -60.424664
 C         -64.286263     -171.541214      -60.158001
 H         -65.493881     -173.671890      -57.744205
 H         -66.412727     -173.653610      -59.220825
 H         -62.572418     -174.382492      -60.307732
 H         -64.045204     -174.116394      -61.398384
 H         -64.248695     -171.645477      -58.024948
 H         -65.751076     -171.085220      -58.705101
 H         -62.898228     -172.385880      -61.444057
 H         -62.126762     -172.267365      -59.947212
 H         -64.048386     -170.498291      -60.245586
 H         -65.145050     -171.610703      -60.851707
