20
 generated by VMD
 C         -12.685070      -30.132366       -8.303821
 N         -13.475883      -30.728182       -7.788177
 H         -11.279955      -30.639183       -5.187677
 H         -10.712468      -31.296169       -3.493672
 C         -10.823972      -31.509005       -4.560890
 C          -9.453512      -32.041832       -5.154433
 C         -11.886197      -32.555634       -4.824145
 C          -9.212964      -33.376797       -4.406818
 C         -11.651346      -33.829807       -4.049649
 C         -10.308025      -34.428772       -4.589010
 H          -8.734908      -31.279711       -4.996980
 H          -9.538238      -32.170437       -6.280207
 H         -12.846206      -32.153202       -4.488485
 H         -11.971617      -32.766907       -5.900040
 H          -9.062274      -33.240822       -3.351490
 H          -8.335331      -33.831963       -4.787238
 H         -12.498266      -34.529213       -4.311880
 H         -11.641455      -33.785229       -3.011636
 H          -9.998591      -35.371746       -4.017468
 H         -10.445526      -34.632164       -5.652357
