20
 generated by VMD
 C          -1.224895      -12.456264        1.325526
 N          -0.778137      -12.681389        0.359808
 H          -4.222113      -12.956799        0.979037
 H          -5.816813      -13.314324        0.666113
 C          -4.949531      -13.714779        1.183505
 C          -5.211214      -13.996017        2.629649
 C          -4.558856      -14.937444        0.330877
 C          -6.344878      -15.031211        2.679924
 C          -5.533985      -16.053625        0.498563
 C          -5.994325      -16.343227        1.911826
 H          -5.522943      -13.008659        3.102334
 H          -4.327075      -14.517914        3.010952
 H          -4.467336      -14.584972       -0.691597
 H          -3.558059      -15.278737        0.611813
 H          -7.261232      -14.613325        2.252521
 H          -6.527399      -15.278820        3.751752
 H          -5.133490      -17.012829        0.081724
 H          -6.456951      -15.837503       -0.059232
 H          -6.929193      -16.877289        1.821916
 H          -5.326338      -16.962824        2.480292
