20
 generated by VMD
 C         -69.716156     -181.040756      -61.223358
 N         -69.185692     -180.335327      -61.985813
 H         -66.766808     -179.743835      -59.368652
 H         -70.059189     -181.704819      -60.468815
 C         -66.276039     -178.916306      -59.784664
 C         -65.492783     -179.134399      -61.101570
 C         -65.798409     -177.844070      -58.833050
 C         -65.266022     -177.808792      -61.761078
 C         -65.376396     -176.551895      -59.608356
 C         -64.550735     -176.960052      -60.777454
 H         -66.027390     -179.818481      -61.729626
 H         -64.700409     -179.818314      -60.825378
 H         -66.493202     -177.526443      -58.072372
 H         -64.877075     -178.297760      -58.318932
 H         -66.192947     -177.330643      -61.839153
 H         -64.664948     -177.909088      -62.672100
 H         -64.731010     -175.892136      -59.007359
 H         -66.311302     -176.054062      -59.799118
 H         -64.301796     -175.995941      -61.152828
 H         -63.502190     -177.325241      -60.485001
