20
 generated by VMD
 C         -68.982162     -186.933228      -67.841019
 N         -67.977570     -187.429581      -67.543213
 H         -68.324966     -187.302063      -64.304375
 H         -69.927605     -186.445679      -67.958290
 C         -69.158592     -187.409927      -63.588665
 C         -69.010368     -187.809769      -62.214622
 C         -70.430542     -187.017395      -64.152992
 C         -70.154922     -188.599274      -61.570732
 C         -71.514084     -188.009125      -63.668045
 C         -71.517471     -187.988312      -62.129646
 H         -68.707054     -186.794830      -61.669952
 H         -68.097977     -188.440628      -61.987808
 H         -70.599342     -185.983963      -63.812141
 H         -70.425797     -186.759491      -65.254883
 H         -70.126106     -188.428741      -60.442539
 H         -70.171257     -189.667877      -61.802284
 H         -71.228584     -189.013809      -64.099197
 H         -72.525497     -187.771057      -64.140404
 H         -71.707542     -187.019897      -61.711288
 H         -72.213188     -188.584763      -61.693676
