20
 generated by VMD
 C         -50.432125     -129.102493      -43.602051
 N         -50.829582     -129.563751      -44.559772
 H         -48.956703     -128.210312      -40.412304
 H         -50.044273     -128.611603      -42.733875
 C         -47.839684     -128.166992      -40.380264
 C         -47.126747     -129.453705      -40.117733
 C         -46.965851     -126.939072      -40.686050
 C         -46.164810     -129.690842      -41.322124
 C         -45.995060     -127.285622      -41.799919
 C         -45.208744     -128.556976      -41.625248
 H         -47.929497     -130.263733      -39.985867
 H         -46.590298     -129.490463      -39.222141
 H         -47.587193     -126.136826      -40.977127
 H         -46.310158     -126.522270      -39.804714
 H         -46.683811     -129.904190      -42.245464
 H         -45.562550     -130.516937      -41.282665
 H         -45.300259     -126.386696      -41.899548
 H         -46.632118     -127.319908      -42.745045
 H         -44.663944     -128.858429      -42.520325
 H         -44.552319     -128.454437      -40.711983
