20
 generated by VMD
 C         -41.425587     -119.322044      -34.616589
 N         -40.763271     -119.581017      -35.499035
 H         -43.346203     -117.770424      -36.320030
 H         -41.968246     -118.805641      -33.856911
 C         -43.841183     -117.862366      -37.336006
 C         -42.997440     -118.070961      -38.578632
 C         -45.076569     -117.229218      -37.600327
 C         -43.767197     -118.457001      -39.931198
 C         -45.872620     -117.841957      -38.823212
 C         -45.112843     -117.780746      -40.174545
 H         -42.104050     -118.766754      -38.307720
 H         -42.575657     -117.000450      -38.896584
 H         -45.754196     -117.327065      -36.722530
 H         -44.855453     -116.209717      -37.664059
 H         -43.931206     -119.544144      -39.934994
 H         -42.997700     -118.242500      -40.764893
 H         -46.677849     -117.237045      -38.840424
 H         -46.361065     -118.759903      -38.600811
 H         -45.718567     -118.091263      -41.063053
 H         -44.958420     -116.767601      -40.344986
