20
 generated by VMD
 C         -74.007561     -201.297455      -65.700661
 N         -72.980400     -200.932434      -66.078415
 H         -75.785721     -198.319000      -67.355301
 H         -74.919060     -201.395157      -65.223442
 C         -75.173073     -197.884842      -68.166389
 C         -74.867172     -196.420074      -67.910683
 C         -74.469261     -198.675446      -69.132385
 C         -73.459419     -195.910904      -68.415024
 C         -73.423798     -197.942551      -69.962616
 C         -72.578407     -197.030518      -68.983292
 H         -74.950714     -196.263275      -66.897263
 H         -75.772308     -196.003006      -68.422272
 H         -73.959892     -199.543747      -68.712936
 H         -75.237297     -198.958740      -69.830093
 H         -73.059998     -195.462570      -67.523117
 H         -73.654167     -195.158524      -69.192825
 H         -73.879547     -197.442322      -70.819633
 H         -72.745911     -198.595947      -70.404381
 H         -72.154907     -197.632294      -68.050789
 H         -71.768967     -196.632126      -69.516678
