20
 generated by VMD
 C         -68.778915     -193.741089      -66.648506
 N         -67.747559     -193.667236      -66.087753
 H         -70.025391     -190.799728      -65.939499
 H         -69.827568     -193.745285      -67.094299
 C         -71.044846     -190.857391      -65.641159
 C         -72.141251     -190.435806      -66.584320
 C         -71.453239     -191.316605      -64.263000
 C         -73.244385     -191.447723      -66.559883
 C         -73.019882     -191.165497      -64.059639
 C         -73.730400     -191.887085      -65.187386
 H         -71.716743     -190.414948      -67.523071
 H         -72.478638     -189.401794      -66.278336
 H         -71.163185     -192.298721      -64.120689
 H         -70.952751     -190.643127      -63.556244
 H         -73.094002     -192.262589      -67.188515
 H         -74.018974     -190.988388      -67.116005
 H         -73.306625     -190.075119      -64.082428
 H         -73.315056     -191.652496      -63.175568
 H         -73.597374     -193.083313      -65.203827
 H         -74.759560     -191.579483      -65.168243
