20
 generated by VMD
 C         -69.185295     -180.373093      -60.662777
 N         -69.491653     -181.443588      -60.375828
 H         -67.324081     -177.818024      -59.714535
 H         -68.956429     -179.323425      -60.803509
 C         -66.361786     -177.277145      -59.862087
 C         -65.828812     -177.478531      -61.259186
 C         -65.267845     -177.213806      -58.810848
 C         -64.914040     -176.291443      -61.673901
 C         -64.404846     -176.040237      -59.242107
 C         -63.842487     -176.200089      -60.679516
 H         -66.626671     -177.462936      -62.019836
 H         -65.398590     -178.525604      -61.442276
 H         -65.683899     -177.074860      -57.848343
 H         -64.686798     -178.200333      -58.886723
 H         -65.535477     -175.434677      -61.608997
 H         -64.612785     -176.585754      -62.707371
 H         -63.592236     -176.068848      -58.481998
 H         -65.023506     -175.167068      -59.207245
 H         -63.173599     -175.439423      -60.994743
 H         -63.164223     -177.088409      -60.708134
