20
 generated by VMD
 C         -60.797703     -153.288406      -52.326973
 N         -61.043251     -153.541351      -51.267643
 H         -57.658916     -153.922867      -50.938847
 H         -60.525581     -153.102509      -53.324486
 C         -56.701736     -153.405212      -50.884521
 C         -55.867813     -153.678757      -49.675488
 C         -56.439613     -152.152786      -51.615868
 C         -54.365761     -153.491165      -49.785843
 C         -54.899464     -151.839890      -51.653717
 C         -54.064373     -152.068054      -50.333199
 H         -56.002350     -154.725571      -49.421268
 H         -56.448647     -153.124420      -48.907261
 H         -56.740063     -152.426102      -52.655598
 H         -57.092995     -151.319229      -51.356705
 H         -54.105034     -154.282303      -50.423611
 H         -53.983257     -153.604034      -48.745716
 H         -54.550842     -150.750198      -52.015419
 H         -54.494205     -152.505447      -52.502460
 H         -52.905148     -151.977982      -50.608227
 H         -54.375828     -151.235275      -49.738239
