20
 generated by VMD
 C         -41.322582     -102.351936      -35.473808
 N         -41.554279     -103.398239      -35.907269
 H         -39.048401     -104.922050      -33.836323
 H         -41.462891     -101.365608      -34.994862
 C         -38.662086     -105.128075      -32.895775
 C         -37.320385     -104.397430      -32.848946
 C         -38.903111     -106.259064      -31.956215
 C         -36.441471     -104.670113      -31.599539
 C         -37.965950     -106.420959      -30.752523
 C         -36.573093     -106.085655      -31.101652
 H         -37.439075     -103.315643      -33.017902
 H         -36.716259     -104.720428      -33.641159
 H         -39.886806     -106.160011      -31.498632
 H         -38.828968     -107.226059      -32.395191
 H         -36.742733     -104.039383      -30.807911
 H         -35.427959     -104.379303      -31.695385
 H         -38.145493     -107.511780      -30.427155
 H         -38.282337     -105.800270      -29.978867
 H         -35.920773     -106.247559      -30.175667
 H         -36.208637     -106.702766      -31.893980
