20
 generated by VMD
 C         -78.930481     -206.997849      -75.333481
 N         -79.774681     -207.045441      -76.126549
 H         -77.868248     -209.744476      -73.381516
 H         -78.084435     -207.085815      -74.614052
 C         -77.772163     -209.522903      -72.323624
 C         -76.630577     -208.653168      -71.927238
 C         -78.394547     -210.553543      -71.346558
 C         -76.639915     -208.274963      -70.451462
 C         -78.166618     -210.128403      -69.864830
 C         -76.854607     -209.437698      -69.450027
 H         -76.669876     -207.753799      -72.550766
 H         -75.692932     -209.155426      -72.124260
 H         -79.272713     -210.987457      -71.790443
 H         -77.628014     -211.353210      -71.315880
 H         -77.507858     -207.668152      -70.269814
 H         -75.754997     -207.781921      -70.107727
 H         -78.390656     -210.934692      -69.096245
 H         -78.927940     -209.399933      -69.755623
 H         -76.878372     -209.003464      -68.418709
 H         -76.148468     -210.306458      -69.407776
