20
 generated by VMD
 C         -31.649782      -78.663551      -26.391804
 N         -31.157625      -77.966255      -27.143452
 H         -29.420115      -79.632195      -24.141678
 H         -32.258747      -79.230743      -25.658270
 C         -29.027927      -80.674309      -23.970783
 C         -27.613146      -80.823807      -23.276115
 C         -29.913507      -81.895569      -23.581717
 C         -27.693617      -81.065125      -21.749569
 C         -29.971092      -82.077820      -22.089804
 C         -28.575722      -82.351387      -21.480482
 H         -26.927427      -79.960884      -23.453106
 H         -26.969076      -81.582199      -23.634012
 H         -30.983221      -81.826385      -24.047405
 H         -29.554163      -82.847145      -23.929689
 H         -28.121778      -80.120667      -21.274965
 H         -26.727612      -81.316170      -21.296270
 H         -30.595852      -82.995064      -21.812059
 H         -30.381325      -81.170326      -21.605738
 H         -28.649612      -82.349709      -20.428364
 H         -28.199104      -83.247261      -21.985296
