20
 generated by VMD
 C         -67.511314     -177.849838      -57.586086
 N         -67.421661     -178.767120      -56.878651
 H         -64.801422     -176.361954      -59.930229
 H         -67.544434     -176.945557      -58.127426
 C         -64.489838     -175.390564      -59.637325
 C         -65.663742     -174.481354      -59.591400
 C         -63.193184     -174.977722      -60.257607
 C         -65.279205     -173.040451      -59.488903
 C         -63.008274     -173.367432      -60.199059
 C         -64.308105     -172.593857      -60.476051
 H         -66.414940     -174.716354      -58.754986
 H         -66.073273     -174.597595      -60.561695
 H         -62.290730     -175.258041      -59.739563
 H         -63.000378     -175.247330      -61.274429
 H         -64.822266     -172.906067      -58.509914
 H         -66.214775     -172.514999      -59.732254
 H         -62.173035     -173.177094      -60.848183
 H         -62.630554     -173.154938      -59.112999
 H         -63.992393     -171.543518      -60.603722
 H         -64.688683     -172.971420      -61.379200
