20
 generated by VMD
 C         -66.774391     -177.889023      -57.009552
 N         -67.822739     -178.373123      -56.860058
 H         -64.310509     -176.118912      -59.324898
 H         -65.774277     -177.408920      -57.031006
 C         -64.292786     -175.109543      -59.623569
 C         -65.492867     -174.276428      -59.399048
 C         -63.141590     -174.533005      -60.433022
 C         -65.188309     -172.845352      -59.232265
 C         -62.991707     -173.003036      -60.410103
 C         -64.354919     -172.351318      -60.391029
 H         -66.132629     -174.631439      -58.663811
 H         -66.032173     -174.353302      -60.387398
 H         -62.172180     -174.851044      -60.116112
 H         -63.264099     -174.662888      -61.476933
 H         -64.808189     -172.569641      -58.247555
 H         -66.161636     -172.364883      -59.203316
 H         -62.173206     -172.814972      -61.201839
 H         -62.618156     -172.678864      -59.469437
 H         -64.283676     -171.255463      -60.313465
 H         -64.973953     -172.580124      -61.327351
