20
 generated by VMD
 C         -12.058062      -25.459095       -0.396287
 N         -12.955776      -25.986284       -0.021750
 H          -9.065874      -26.865854       -2.345532
 H          -9.331201      -25.829163       -3.736360
 C          -8.599580      -26.259279       -3.114670
 C          -7.644057      -27.118242       -3.874886
 C          -7.960928      -24.998304       -2.521764
 C          -6.837066      -26.279001       -4.877266
 C          -7.245353      -24.152578       -3.510731
 C          -6.206673      -24.956711       -4.330257
 H          -8.024165      -28.021536       -4.393969
 H          -6.989904      -27.559679       -3.201090
 H          -8.650947      -24.422314       -1.915820
 H          -7.184763      -25.290325       -1.772053
 H          -7.576226      -26.036961       -5.633956
 H          -6.127386      -26.909786       -5.383236
 H          -6.766768      -23.268671       -3.062179
 H          -8.000443      -23.894253       -4.266230
 H          -5.748806      -24.309183       -5.103326
 H          -5.476123      -25.241034       -3.531891
