20
 generated by VMD
 C         -74.254562     -200.512726      -66.240540
 N         -73.169228     -200.899170      -66.333267
 H         -76.217834     -198.498718      -67.970680
 H         -75.278389     -200.168777      -66.184174
 C         -75.266724     -198.154709      -68.399254
 C         -74.809067     -196.954895      -67.656532
 C         -74.474052     -198.967636      -69.335960
 C         -73.614449     -196.240204      -68.274330
 C         -73.243706     -198.289780      -69.810959
 C         -72.623489     -197.335693      -68.808540
 H         -74.497391     -197.268616      -66.736931
 H         -75.753609     -196.293152      -67.441078
 H         -74.268951     -199.978668      -68.924034
 H         -75.195396     -199.182907      -70.176765
 H         -73.040649     -195.593262      -67.615532
 H         -73.831184     -195.616898      -69.141670
 H         -73.593742     -197.706329      -70.661476
 H         -72.490997     -198.912949      -70.147964
 H         -72.387512     -197.934036      -67.871635
 H         -71.741608     -197.008896      -69.185516
