20
 generated by VMD
 C          -2.327680      -17.958525        2.366791
 N          -1.756058      -17.031622        2.603201
 H          -5.311641      -17.991060        0.946102
 H          -5.147727      -19.132544       -0.361514
 C          -5.801811      -18.425545        0.079741
 C          -6.022845      -17.279755       -0.903327
 C          -7.104478      -19.014936        0.531374
 C          -6.787182      -17.662203       -2.119350
 C          -7.933284      -19.435722       -0.698609
 C          -8.104184      -18.372259       -1.843150
 H          -5.005785      -16.870983       -1.242721
 H          -6.482114      -16.519485       -0.293093
 H          -6.854010      -19.944643        1.133718
 H          -7.642703      -18.277407        1.174285
 H          -6.169551      -18.377308       -2.647683
 H          -6.965576      -16.833797       -2.743838
 H          -8.887445      -19.863054       -0.324366
 H          -7.404992      -20.239954       -1.188589
 H          -8.417743      -18.914206       -2.722831
 H          -8.852076      -17.598341       -1.590420
