20
 generated by VMD
 C         -20.506168      -56.485600      -16.856199
 N         -21.402124      -55.870914      -17.328777
 H         -22.320763      -58.366520      -16.469112
 H         -19.936493      -56.820042      -16.012877
 C         -22.108629      -59.313927      -15.940111
 C         -22.305103      -59.248848      -14.491741
 C         -21.706007      -60.611382      -16.547974
 C         -21.054169      -59.719490      -13.763034
 C         -20.762007      -61.376320      -15.647610
 C         -20.829679      -61.160465      -14.139803
 H         -23.283844      -59.753216      -14.264526
 H         -22.366575      -58.222775      -14.149338
 H         -22.525911      -61.255730      -16.864830
 H         -21.077305      -60.323559      -17.369499
 H         -21.176409      -59.503525      -12.668109
 H         -20.143412      -59.134743      -13.851376
 H         -19.723890      -61.383137      -15.907406
 H         -20.991360      -62.434109      -15.819335
 H         -21.588343      -61.844440      -13.657345
 H         -19.858307      -61.473072      -13.828797
