20
 generated by VMD
 C         -56.953644     -150.705154      -47.968376
 N         -57.943287     -150.771759      -48.498405
 H         -54.220081     -148.613907      -47.253731
 H         -55.989117     -150.626923      -47.519905
 C         -54.206482     -148.528748      -48.375580
 C         -53.596802     -149.327087      -49.419220
 C         -54.624454     -147.107880      -48.746834
 C         -54.213535     -149.161819      -50.767689
 C         -55.373245     -147.075638      -50.003750
 C         -54.610367     -147.812073      -51.128269
 H         -53.487663     -150.466583      -49.299995
 H         -52.552456     -149.031357      -49.337746
 H         -55.240189     -146.750275      -47.931675
 H         -53.801830     -146.454025      -48.763603
 H         -54.994614     -149.943802      -50.839718
 H         -53.506439     -149.479431      -51.518208
 H         -55.625462     -146.041199      -50.345772
 H         -56.395386     -147.460983      -49.875309
 H         -55.430943     -147.892685      -51.845226
 H         -53.924572     -147.122772      -51.620117
