20
 generated by VMD
 C         -11.756338      -25.846584       -0.886198
 N         -11.881079      -25.181656       -0.008543
 H          -8.231088      -26.397444       -1.357896
 H          -9.135269      -25.683039       -2.668062
 C          -8.114265      -25.808569       -2.318957
 C          -7.340544      -26.632111       -3.362615
 C          -7.505693      -24.433393       -2.154780
 C          -7.336072      -25.858368       -4.654880
 C          -7.424500      -23.678074       -3.458240
 C          -6.795650      -24.442327       -4.572800
 H          -7.934301      -27.604597       -3.554573
 H          -6.360400      -26.773127       -2.898447
 H          -8.073524      -23.780798       -1.488207
 H          -6.459210      -24.514328       -1.811753
 H          -8.397820      -25.705582       -4.952522
 H          -6.824920      -26.413048       -5.466271
 H          -6.896768      -22.716724       -3.330413
 H          -8.451384      -23.345055       -3.676722
 H          -6.734145      -23.887724       -5.508597
 H          -5.712630      -24.504200       -4.352645
