20
 generated by VMD
 C         -10.941738      -33.151794       -8.640659
 N         -11.660751      -33.271698       -9.458967
 H         -12.493195      -33.690990       -6.202512
 H         -12.754001      -34.423031       -4.598473
 C         -12.632255      -34.668060       -5.691145
 C         -11.358244      -35.503761       -5.901341
 C         -13.845651      -35.395218       -6.301103
 C         -11.381226      -36.830097       -5.205672
 C         -13.954737      -36.805626       -5.779817
 C         -12.606498      -37.564255       -5.862403
 H         -10.482800      -34.925877       -5.521198
 H         -11.301037      -35.623077       -7.020746
 H         -14.736520      -34.785877       -6.045981
 H         -13.779387      -35.384594       -7.391136
 H         -11.536574      -36.707531       -4.085951
 H         -10.481376      -37.342171       -5.526840
 H         -14.639791      -37.346691       -6.450231
 H         -14.386949      -36.777451       -4.736811
 H         -12.735685      -38.512005       -5.293528
 H         -12.389038      -37.893345       -6.903831
