20
 generated by VMD
 C         -20.129890      -61.614380      -16.459476
 N         -19.690149      -61.067829      -17.406187
 H         -21.611410      -64.850243      -17.373779
 H         -20.670805      -61.971340      -15.599966
 C         -22.554300      -64.391319      -17.277361
 C         -23.262226      -63.892864      -18.467714
 C         -23.536455      -64.503365      -16.093687
 C         -24.562637      -64.652290      -18.778309
 C         -24.791412      -65.272400      -16.229065
 C         -25.477215      -64.685036      -17.451923
 H         -22.532217      -63.654217      -19.259951
 H         -23.538597      -62.806675      -18.177788
 H         -22.926462      -64.907715      -15.238116
 H         -23.647415      -63.396862      -15.830832
 H         -24.326498      -65.661369      -19.229624
 H         -25.083004      -64.060974      -19.524368
 H         -25.328531      -65.093002      -15.288152
 H         -24.519880      -66.313301      -16.402020
 H         -26.246769      -65.364799      -17.725208
 H         -25.858702      -63.701134      -17.392319
