20
 generated by VMD
 C         -35.164211      -97.768486      -25.733370
 N         -35.840530      -97.509766      -26.629452
 H         -35.588352      -95.037621      -27.742559
 H         -34.660538      -97.968094      -24.816231
 C         -35.317726      -94.794479      -28.783848
 C         -35.835251      -95.698586      -29.979853
 C         -34.025486      -94.049408      -28.935137
 C         -35.638237      -94.935936      -31.347803
 C         -33.852619      -93.573967      -30.394329
 C         -34.178989      -94.596725      -31.548895
 H         -36.967617      -95.807396      -29.929136
 H         -35.405041      -96.668472      -29.941034
 H         -34.054619      -93.178291      -28.214216
 H         -33.187462      -94.746170      -28.754498
 H         -36.327717      -94.048653      -31.445002
 H         -35.853714      -95.561348      -32.191696
 H         -32.835625      -93.088737      -30.436872
 H         -34.628208      -92.780930      -30.525402
 H         -33.995770      -94.086777      -32.472111
 H         -33.520672      -95.439812      -31.712624
