20
 generated by VMD
 C         -68.650467     -184.798264      -65.948471
 N         -69.599014     -185.499817      -65.998756
 H         -69.766151     -182.805679      -63.349232
 H         -67.793030     -184.216629      -65.845352
 C         -69.211456     -183.663742      -62.940983
 C         -69.908302     -184.968979      -62.580513
 C         -67.803734     -183.386612      -62.513184
 C         -69.072678     -186.003891      -61.887295
 C         -67.432747     -184.122711      -61.187672
 C         -68.441620     -185.203171      -60.759235
 H         -70.291367     -185.321243      -63.537510
 H         -70.702477     -184.696243      -61.923477
 H         -66.992645     -183.585464      -63.317463
 H         -67.773697     -182.308746      -62.262547
 H         -68.236046     -186.372437      -62.517330
 H         -69.680260     -186.896667      -61.761753
 H         -67.209389     -183.312576      -60.480068
 H         -66.429344     -184.670135      -61.184769
 H         -67.813026     -185.894882      -60.214989
 H         -69.263504     -184.694382      -59.939548
