20
 generated by VMD
 C         -69.011971     -194.894867      -65.476959
 N         -68.603790     -194.308167      -64.532509
 H         -71.284264     -194.255157      -68.001389
 H         -69.478546     -195.221786      -66.419380
 C         -71.995171     -193.700317      -67.397949
 C         -71.710396     -192.570312      -66.515396
 C         -73.380463     -194.304764      -67.208336
 C         -72.771439     -192.257355      -65.484329
 C         -74.474243     -193.316040      -67.033348
 C         -74.110596     -192.078415      -66.201683
 H         -71.752960     -191.630478      -67.121765
 H         -70.815735     -192.714798      -65.919235
 H         -73.514763     -194.898788      -68.110466
 H         -73.428116     -194.796005      -66.222786
 H         -72.482399     -191.379120      -64.919846
 H         -73.025276     -193.072479      -64.796921
 H         -75.389008     -193.820770      -66.569466
 H         -74.746964     -192.967041      -68.014137
 H         -73.941399     -191.147736      -66.922531
 H         -74.835518     -191.812180      -65.520836
