20
 generated by VMD
 C         -12.532600      -27.383354       -4.710560
 N         -13.373128      -28.126099       -4.729539
 H         -10.763981      -30.082287       -2.714004
 H         -10.714371      -28.646431       -3.673036
 C         -10.122469      -29.456823       -3.247626
 C          -9.454216      -30.135157       -4.399348
 C          -9.036347      -28.777514       -2.356978
 C          -8.636945      -29.232470       -5.257308
 C          -8.014322      -27.933809       -3.175858
 C          -7.531371      -28.588146       -4.492345
 H         -10.173399      -30.639811       -5.006516
 H          -8.829488      -31.064070       -4.109352
 H          -9.498725      -28.168516       -1.562329
 H          -8.464589      -29.591782       -1.870743
 H          -9.294636      -28.500246       -5.757622
 H          -8.267920      -29.773836       -6.124539
 H          -7.208949      -27.655859       -2.515954
 H          -8.487126      -26.901468       -3.397475
 H          -6.996084      -27.832336       -5.112092
 H          -6.812413      -29.341980       -4.169244
