20
 generated by VMD
 C         -38.243286     -110.332779      -36.165028
 N         -37.702770     -109.288307      -36.266891
 H         -40.297462     -113.705109      -35.670483
 H         -38.735283     -111.287750      -35.959877
 C         -41.221806     -113.146431      -35.917133
 C         -42.250023     -113.867592      -36.662525
 C         -41.497631     -111.972511      -35.063583
 C         -43.414131     -114.220558      -35.759163
 C         -42.570293     -112.434303      -34.114925
 C         -43.816971     -112.908165      -34.926956
 H         -41.897785     -114.700653      -37.284470
 H         -42.659008     -113.118729      -37.438522
 H         -40.618908     -111.593903      -34.487740
 H         -41.930603     -111.106621      -35.616814
 H         -43.096165     -114.940063      -34.894920
 H         -44.245090     -114.576187      -36.357052
 H         -42.826775     -111.621063      -33.459370
 H         -42.108952     -113.236328      -33.567429
 H         -44.681450     -113.257301      -34.169800
 H         -44.181454     -112.194038      -35.642830
