20
 generated by VMD
 C         -28.990133      -73.813828      -19.484722
 N         -29.975098      -74.498001      -19.477055
 H         -25.584900      -73.231590      -18.834862
 H         -28.110647      -73.343918      -19.322699
 C         -25.618351      -73.162590      -19.925623
 C         -25.305889      -74.410217      -20.722910
 C         -25.773994      -71.726349      -20.375500
 C         -25.807251      -74.274925      -22.177847
 C         -26.239025      -71.696526      -21.913511
 C         -25.564260      -72.839050      -22.728928
 H         -25.690205      -75.279190      -20.272886
 H         -24.163620      -74.530823      -20.733561
 H         -26.433994      -71.285873      -19.647335
 H         -24.819010      -71.172829      -20.417130
 H         -26.890514      -74.355049      -22.194521
 H         -25.318298      -75.044304      -22.793810
 H         -26.077589      -70.708153      -22.297623
 H         -27.362640      -71.821365      -21.851625
 H         -25.642179      -72.773338      -23.795282
 H         -24.470510      -72.658798      -22.540333
