20
 generated by VMD
 C         -60.579193     -156.263611      -54.657001
 N         -60.204521     -155.447495      -55.361542
 H         -59.776646     -157.054947      -51.611481
 H         -60.998756     -156.931061      -53.955551
 C         -58.804020     -156.987595      -52.043221
 C         -58.081516     -155.695557      -52.102985
 C         -57.927765     -158.211868      -52.042664
 C         -57.013439     -155.678497      -50.933865
 C         -56.781860     -158.286987      -50.968937
 C         -56.096622     -156.852051      -51.000801
 H         -58.672619     -154.868500      -51.864117
 H         -57.587212     -155.494476      -53.054802
 H         -58.498257     -159.154434      -52.058525
 H         -57.404747     -158.197830      -53.087936
 H         -57.467407     -155.770844      -49.926670
 H         -56.376930     -154.792404      -51.182346
 H         -56.213074     -159.175888      -51.179356
 H         -57.310013     -158.326187      -49.948067
 H         -55.380741     -156.785202      -50.161587
 H         -55.493683     -156.743179      -51.917217
