20
 generated by VMD
 C         -28.009565      -87.260925      -27.163691
 N         -27.745550      -86.901421      -26.046385
 H         -31.330868      -88.307167      -25.228096
 H         -28.078609      -87.510216      -28.162647
 C         -32.256710      -88.492874      -25.757954
 C         -33.476173      -88.665108      -24.879400
 C         -32.381641      -88.443810      -27.235601
 C         -34.527664      -87.700180      -25.324890
 C         -33.530487      -87.648521      -27.717234
 C         -34.871765      -87.728134      -26.774517
 H         -33.043339      -88.430359      -23.925032
 H         -33.985435      -89.661499      -25.069910
 H         -31.458557      -87.963562      -27.515493
 H         -32.292706      -89.477478      -27.580307
 H         -34.272423      -86.676399      -24.896729
 H         -35.388004      -87.981461      -24.651342
 H         -33.805431      -87.970383      -28.744686
 H         -33.467018      -86.631874      -27.899292
 H         -35.569149      -86.919693      -26.903746
 H         -35.382118      -88.662834      -26.901737
