20
 generated by VMD
 C          -1.819139      -13.024805        0.522064
 N          -1.527968      -13.752362        1.306896
 H          -3.498010      -15.779891        1.697109
 H          -4.111246      -15.274564        0.114447
 C          -4.419193      -15.759644        1.070303
 C          -5.550463      -14.971928        1.765914
 C          -4.700057      -17.241894        0.908956
 C          -6.843989      -15.166221        0.937799
 C          -5.994337      -17.454763        0.180596
 C          -7.162496      -16.654131        0.790191
 H          -5.372153      -13.876662        1.826017
 H          -5.685022      -15.204935        2.804141
 H          -3.816845      -17.709063        0.261453
 H          -4.701083      -17.720461        1.959042
 H          -6.606324      -14.670366       -0.048328
 H          -7.684944      -14.543097        1.373538
 H          -6.246738      -18.510345        0.238598
 H          -5.967627      -17.134731       -0.906415
 H          -8.074548      -16.804979        0.208572
 H          -7.330528      -17.062038        1.795001
