20
 generated by VMD
 C         -78.729996     -209.066071      -77.115776
 N         -79.629349     -208.576035      -76.651093
 H         -78.441101     -209.095840      -73.170319
 H         -77.723770     -209.410233      -77.483994
 C         -78.269646     -209.825943      -72.345024
 C         -76.897713     -209.745895      -71.445175
 C         -79.183586     -211.064743      -72.339714
 C         -77.151772     -210.503967      -70.110634
 C         -79.454613     -211.462875      -70.921486
 C         -78.108841     -211.759186      -70.195000
 H         -76.699387     -208.709885      -71.240295
 H         -76.096931     -210.352341      -71.918633
 H         -80.095757     -211.022995      -72.943459
 H         -78.614655     -211.845490      -72.758728
 H         -77.538200     -209.729980      -69.415321
 H         -76.193695     -210.919922      -69.759506
 H         -80.130737     -212.439194      -70.839554
 H         -79.970139     -210.732224      -70.328568
 H         -78.404282     -212.032288      -69.171463
 H         -77.576866     -212.614212      -70.629387
