20
 generated by VMD
 C         -68.836769     -193.666824      -66.596893
 N         -67.761803     -193.639038      -66.177765
 H         -69.956535     -190.693909      -65.689049
 H         -69.715118     -193.654938      -67.297089
 C         -71.013634     -190.821228      -65.548424
 C         -72.035095     -190.472076      -66.590057
 C         -71.488907     -191.213226      -64.253136
 C         -73.262177     -191.518234      -66.595436
 C         -72.992371     -191.153992      -64.056389
 C         -73.737518     -191.868530      -65.173523
 H         -71.620888     -190.363220      -67.575539
 H         -72.389542     -189.475800      -66.332581
 H         -71.173004     -192.204071      -64.267075
 H         -70.941658     -190.718811      -63.447556
 H         -72.946968     -192.420059      -67.131020
 H         -74.141647     -191.087143      -67.063393
 H         -73.223930     -190.069580      -64.071167
 H         -73.255745     -191.386383      -63.053391
 H         -73.636879     -192.963303      -64.843979
 H         -74.772568     -191.719238      -65.137260
