20
 generated by VMD
 C         -58.118809     -161.860001      -56.244049
 N         -57.145382     -162.007141      -56.935722
 H         -59.870117     -165.145020      -55.100185
 H         -59.087109     -161.747757      -55.697502
 C         -60.519825     -164.325455      -54.879890
 C         -60.443295     -163.948517      -53.470398
 C         -61.763695     -164.574738      -55.656921
 C         -61.599545     -163.013748      -53.033306
 C         -62.669041     -163.475967      -55.206417
 C         -62.793884     -163.389099      -53.726067
 H         -59.513325     -163.475800      -53.118370
 H         -60.689339     -164.946930      -52.848351
 H         -61.587410     -164.243301      -56.671600
 H         -62.093929     -165.593994      -55.549530
 H         -61.268864     -161.959641      -53.405071
 H         -61.764805     -162.948608      -51.928036
 H         -63.619625     -163.768021      -55.621437
 H         -62.283859     -162.429993      -55.572590
 H         -63.652302     -162.599884      -53.540302
 H         -63.293922     -164.311310      -53.331280
