20
 generated by VMD
 C         -12.769382      -28.675867       -5.957095
 N         -12.973507      -27.690929       -5.457040
 H         -11.569421      -31.323790       -3.754410
 H         -11.264902      -29.835625       -4.547780
 C         -10.788866      -30.629057       -3.998935
 C          -9.828197      -31.353752       -4.964446
 C         -10.053400      -30.078320       -2.788361
 C          -8.610199      -30.598423       -5.277423
 C          -8.899287      -29.174175       -3.156979
 C          -7.971416      -29.924196       -4.086326
 H         -10.378496      -31.615995       -5.818500
 H          -9.639426      -32.372242       -4.524749
 H         -10.769806      -29.518143       -2.142153
 H          -9.677335      -30.913759       -2.174840
 H          -8.774712      -29.919973       -6.107602
 H          -7.875689      -31.220156       -5.754610
 H          -8.324697      -28.956007       -2.289657
 H          -9.244683      -28.190157       -3.607763
 H          -7.232128      -29.093636       -4.413960
 H          -7.226851      -30.574102       -3.592455
