20
 generated by VMD
 C         -50.683750     -129.578201      -45.712605
 N         -51.223885     -130.571213      -45.454346
 H         -48.381413     -130.917053      -43.911560
 H         -50.246742     -128.636017      -45.532101
 C         -48.124226     -130.956512      -42.865993
 C         -48.350307     -132.302460      -42.223244
 C         -47.941692     -129.726303      -42.144035
 C         -47.211842     -132.523270      -41.306854
 C         -46.787994     -129.963684      -41.093952
 C         -47.056347     -131.311646      -40.327435
 H         -48.311569     -133.045166      -42.928673
 H         -49.373745     -132.328201      -41.647682
 H         -47.638657     -129.024719      -42.955807
 H         -48.781567     -129.312241      -41.784077
 H         -46.242344     -132.660080      -41.820427
 H         -47.422966     -133.480316      -40.760014
 H         -46.660023     -129.073380      -40.562939
 H         -45.788448     -130.067581      -41.588940
 H         -46.126835     -131.565277      -39.746361
 H         -47.947021     -131.002594      -39.739346
