20
 generated by VMD
 C         -77.106773     -203.644302      -66.834961
 N         -77.934258     -204.292114      -66.368820
 H         -75.899231     -200.534851      -68.869484
 H         -76.442253     -203.084869      -67.493790
 C         -74.900200     -200.038361      -69.101593
 C         -74.754913     -198.591476      -68.559898
 C         -73.714424     -200.796539      -69.729630
 C         -73.489952     -197.896027      -69.184196
 C         -72.781792     -200.004486      -70.639725
 C         -73.134560     -198.456894      -70.529091
 H         -74.620728     -198.679077      -67.463272
 H         -75.777473     -198.125107      -68.731735
 H         -73.157616     -201.013229      -68.859665
 H         -74.262321     -201.664597      -70.095123
 H         -72.673210     -198.181992      -68.526962
 H         -73.457466     -196.837891      -69.229553
 H         -72.780815     -200.409241      -71.669075
 H         -71.726715     -200.174454      -70.248726
 H         -72.390503     -197.875687      -70.992744
 H         -73.947456     -198.266586      -71.258385
