20
 generated by VMD
 C         -59.035419     -168.366852      -55.123600
 N         -58.036156     -168.839493      -54.882267
 H         -62.573658     -169.127274      -55.843304
 H         -59.973549     -167.860565      -55.213291
 C         -62.542820     -168.162643      -56.333828
 C         -62.670525     -168.132248      -57.825336
 C         -62.830017     -166.805206      -55.578499
 C         -64.131958     -167.622711      -58.208633
 C         -64.176498     -166.273636      -56.080746
 C         -64.321877     -166.254471      -57.534245
 H         -62.565758     -169.126907      -58.246758
 H         -61.934513     -167.570618      -58.324184
 H         -62.816360     -167.076813      -54.421452
 H         -62.083092     -166.081375      -55.891296
 H         -64.991234     -168.272766      -57.998791
 H         -64.317513     -167.391296      -59.269608
 H         -64.279572     -165.273911      -55.655926
 H         -64.942268     -166.733719      -55.414425
 H         -65.368301     -166.003387      -57.831730
 H         -63.697681     -165.419006      -58.071373
