20
 generated by VMD
 C         -12.676584      -30.164913       -8.259804
 N         -13.352959      -30.746098       -7.583336
 H         -11.164886      -30.481804       -5.226102
 H         -10.710663      -31.242704       -3.588356
 C         -10.849599      -31.418364       -4.631584
 C          -9.541388      -32.005264       -5.129363
 C         -11.972300      -32.420853       -4.801558
 C          -9.106508      -33.324902       -4.503735
 C         -11.636853      -33.767132       -4.111816
 C         -10.230783      -34.361679       -4.526961
 H          -8.846061      -31.199396       -4.984835
 H          -9.564369      -32.093884       -6.251366
 H         -12.871658      -31.984411       -4.321767
 H         -12.252052      -32.605625       -5.851087
 H          -8.767806      -33.214573       -3.444984
 H          -8.240350      -33.767193       -5.024007
 H         -12.437962      -34.503952       -4.269833
 H         -11.613075      -33.720112       -3.017354
 H          -9.947944      -35.171597       -3.809807
 H         -10.348100      -34.826405       -5.539366
