20
 generated by VMD
 C         -69.841026     -183.124634      -65.863777
 N         -70.993027     -182.894089      -65.759048
 H         -67.475151     -183.550446      -63.086609
 H         -68.815796     -183.385178      -65.997360
 C         -67.349503     -182.990433      -62.179417
 C         -67.774490     -183.771988      -60.860001
 C         -67.365547     -181.469040      -62.174129
 C         -66.879501     -183.302017      -59.750164
 C         -66.506302     -181.046677      -60.983742
 C         -66.863434     -181.734222      -59.676903
 H         -67.732719     -184.853317      -61.108547
 H         -68.880554     -183.315582      -60.788349
 H         -66.950127     -180.858765      -63.010162
 H         -68.450401     -181.179001      -62.097839
 H         -65.913254     -183.626846      -59.915852
 H         -67.326424     -183.590042      -58.805912
 H         -66.448837     -179.925385      -60.821060
 H         -65.506577     -181.278427      -61.382519
 H         -66.017853     -181.429810      -59.008083
 H         -67.777641     -181.412689      -59.231022
