20
 generated by VMD
 C         -41.529388     -101.509987      -32.638100
 N         -41.650349     -101.546867      -33.796944
 H         -38.666813     -103.058495      -32.645321
 H         -41.416042     -101.017479      -31.608854
 C         -37.748486     -102.919579      -32.060261
 C         -36.626675     -103.138153      -33.031586
 C         -37.560062     -103.323418      -30.665825
 C         -35.413471     -102.334305      -32.428555
 C         -36.240757     -102.783432      -29.971102
 C         -35.090187     -102.778610      -30.895699
 H         -36.841076     -102.747581      -34.043308
 H         -36.324951     -104.224403      -33.115082
 H         -38.404987     -102.948578      -30.011873
 H         -37.407528     -104.339294      -30.498318
 H         -35.541039     -101.261604      -32.457455
 H         -34.523445     -102.527809      -32.993320
 H         -36.058685     -103.278572      -28.997887
 H         -36.631287     -101.775780      -29.741182
 H         -34.224144     -102.246002      -30.437958
 H         -34.724873     -103.832321      -30.876503
