20
 generated by VMD
 C          -6.931662      -23.315573        2.602935
 N          -7.045072      -22.503677        1.864347
 H          -8.341687      -23.044497       -0.824799
 H          -9.189864      -22.378229       -2.196403
 C          -8.164815      -22.480301       -1.718983
 C          -7.242892      -23.156498       -2.671749
 C          -7.596851      -21.076931       -1.288324
 C          -7.006784      -22.372610       -3.942782
 C          -7.353696      -20.224491       -2.561248
 C          -6.534550      -20.974993       -3.612825
 H          -7.720575      -24.177845       -2.948971
 H          -6.301274      -23.448359       -2.254379
 H          -8.346812      -20.554770       -0.672558
 H          -6.655217      -21.299980       -0.752672
 H          -7.967896      -22.280094       -4.485562
 H          -6.182384      -22.876015       -4.480399
 H          -6.819608      -19.314777       -2.228009
 H          -8.352808      -20.024752       -3.019745
 H          -6.499350      -20.380945       -4.573746
 H          -5.481566      -21.114767       -3.272063
