20
 generated by VMD
 C         -11.939271      -31.598482       -9.032825
 N         -12.611306      -32.234833       -9.657022
 H         -10.747242      -34.110386       -6.655081
 H         -11.702132      -33.986591       -5.213753
 C         -11.422942      -34.703270       -5.962866
 C         -10.638932      -35.777515       -5.248219
 C         -12.634706      -35.226395       -6.690801
 C         -11.512072      -36.634384       -4.331425
 C         -13.600453      -36.001049       -5.690856
 C         -12.805631      -37.079556       -4.911640
 H          -9.811359      -35.432365       -4.650051
 H         -10.293542      -36.506218       -5.977325
 H         -13.240743      -34.575134       -7.324399
 H         -12.243108      -35.998901       -7.396878
 H         -11.648787      -36.037506       -3.464012
 H         -10.955858      -37.510189       -4.023685
 H         -14.445972      -36.487240       -6.279068
 H         -14.031748      -35.334511       -5.019333
 H         -13.446612      -37.555241       -4.160010
 H         -12.504918      -37.900578       -5.664273
