20
 generated by VMD
 C         -11.624666      -25.921820       -0.884409
 N         -11.536500      -25.038568       -0.188444
 H          -7.899424      -26.160215       -1.149291
 H          -9.072687      -25.611874       -2.372123
 C          -8.022867      -25.664837       -2.156481
 C          -7.354383      -26.521189       -3.260391
 C          -7.413676      -24.284807       -2.029347
 C          -7.484746      -25.772507       -4.572127
 C          -7.528012      -23.531521       -3.453374
 C          -6.913388      -24.385292       -4.571119
 H          -7.927656      -27.506927       -3.354371
 H          -6.349653      -26.764986       -2.921434
 H          -7.901641      -23.711580       -1.287769
 H          -6.326922      -24.313684       -1.752695
 H          -8.469656      -25.684465       -5.037916
 H          -6.891644      -26.372187       -5.286730
 H          -6.955481      -22.590691       -3.448244
 H          -8.550539      -23.207565       -3.624827
 H          -7.056181      -23.971704       -5.555155
 H          -5.804480      -24.259518       -4.538037
