20
 generated by VMD
 C          -7.042269      -23.072905        2.500249
 N          -6.044684      -22.687313        2.838584
 H          -6.216849      -20.829948       -0.188446
 H          -7.805451      -21.569120       -0.787228
 C          -6.879378      -21.068441       -1.009620
 C          -6.212078      -21.989714       -2.033422
 C          -7.287069      -19.700266       -1.656517
 C          -7.043089      -22.097427       -3.285125
 C          -8.100851      -19.810965       -2.931525
 C          -7.435985      -20.769144       -3.897888
 H          -6.031203      -22.996044       -1.532756
 H          -5.207128      -21.665424       -2.259217
 H          -7.784413      -18.979525       -0.981009
 H          -6.292061      -19.253977       -1.950293
 H          -7.980364      -22.639406       -3.085082
 H          -6.526289      -22.689003       -4.034283
 H          -8.278636      -18.924994       -3.497960
 H          -9.044434      -20.230717       -2.615382
 H          -8.135228      -20.978746       -4.707311
 H          -6.631905      -20.223478       -4.384089
