20
 generated by VMD
 C         -18.148355      -49.374367       -8.454840
 N         -19.162033      -49.864311       -8.489469
 H         -16.409956      -47.442299       -9.914470
 H         -17.055420      -48.901657      -10.543178
 C         -16.667198      -47.938828      -10.865868
 C         -15.405300      -48.131428      -11.710836
 C         -17.768263      -47.154373      -11.586199
 C         -15.678388      -48.693653      -13.124897
 C         -18.052639      -47.649906      -13.007275
 C         -16.818562      -47.956333      -13.831818
 H         -14.716220      -48.757072      -11.138207
 H         -14.827765      -47.174728      -11.752553
 H         -18.697269      -47.102245      -10.994653
 H         -17.326935      -46.162052      -11.643655
 H         -15.953203      -49.729244      -12.972795
 H         -14.834804      -48.626354      -13.811891
 H         -18.716391      -46.896084      -13.461322
 H         -18.693468      -48.588566      -12.968602
 H         -17.083506      -48.472439      -14.773541
 H         -16.446398      -46.976372      -14.124040
