20
 generated by VMD
 C          -6.777530      -23.302696        3.321353
 N          -6.687877      -22.718361        2.390875
 H          -7.656335      -22.489849       -0.449547
 H          -8.924849      -22.202538       -1.738395
 C          -7.811530      -22.063606       -1.503058
 C          -6.951465      -22.791082       -2.541683
 C          -7.551650      -20.536209       -1.497507
 C          -7.028790      -22.199883       -3.908729
 C          -7.589226      -19.952984       -2.919822
 C          -6.769898      -20.740164       -3.889394
 H          -7.228570      -23.861179       -2.466955
 H          -5.938540      -22.705101       -2.208964
 H          -8.279415      -19.990381       -0.955590
 H          -6.559827      -20.408648       -1.065244
 H          -8.052852      -22.257351       -4.332128
 H          -6.302197      -22.700815       -4.552952
 H          -7.270336      -18.924967       -3.020544
 H          -8.644923      -20.024878       -3.220252
 H          -6.789315      -20.359005       -4.953158
 H          -5.739402      -20.545834       -3.478662
