20
 generated by VMD
 C         -38.344452     -112.810715      -36.207554
 N         -37.308533     -112.474976      -36.552998
 H         -41.301533     -114.777069      -34.824226
 H         -39.254684     -113.310280      -35.887722
 C         -42.178883     -114.587425      -35.379879
 C         -42.026299     -114.771812      -36.916172
 C         -43.324226     -114.000626      -34.695332
 C         -43.365097     -114.843994      -37.598709
 C         -44.656471     -114.274597      -35.493011
 C         -44.534771     -113.963058      -36.987186
 H         -41.504452     -115.660660      -36.847084
 H         -41.507576     -113.875381      -37.126331
 H         -43.582516     -114.246231      -33.674953
 H         -43.098152     -112.924454      -34.850197
 H         -43.717232     -115.834641      -37.501053
 H         -43.288815     -114.571960      -38.674347
 H         -45.360428     -113.715179      -34.935360
 H         -45.087795     -115.241478      -35.399853
 H         -45.557556     -114.174706      -37.440247
 H         -44.399052     -112.846802      -37.159771
