20
 generated by VMD
 C         -38.479778     -109.394051      -36.440540
 N         -37.432594     -108.882446      -36.270458
 H         -42.090275     -109.979546      -36.607281
 H         -39.461769     -109.824554      -36.504051
 C         -42.224926     -110.723015      -35.886623
 C         -41.704891     -112.139771      -35.940971
 C         -42.746777     -110.388298      -34.445099
 C         -40.791939     -112.600769      -34.794895
 C         -41.720039     -110.685997      -33.434235
 C         -41.528419     -112.175003      -33.510860
 H         -41.239464     -112.186798      -36.879204
 H         -42.617493     -112.764481      -35.978447
 H         -42.941776     -109.335243      -34.425949
 H         -43.664577     -110.865692      -34.341713
 H         -39.833450     -112.196419      -34.902737
 H         -40.598408     -113.735825      -34.743172
 H         -42.197784     -110.451530      -32.470798
 H         -40.779385     -110.142456      -33.439114
 H         -40.939602     -112.579407      -32.606033
 H         -42.446533     -112.653526      -33.466564
