20
 generated by VMD
 C         -41.218338     -102.388229      -35.251442
 N         -41.550499     -103.243912      -35.959190
 H         -39.447773     -104.688049      -33.562004
 H         -40.920181     -101.615318      -34.539165
 C         -38.707169     -105.021912      -32.711491
 C         -37.307182     -104.307068      -32.944801
 C         -38.830139     -106.152046      -31.801378
 C         -36.483776     -104.452301      -31.681574
 C         -37.821247     -106.392616      -30.699587
 C         -36.519112     -105.892799      -31.135832
 H         -37.546749     -103.274010      -33.284985
 H         -36.681965     -104.754761      -33.824089
 H         -39.905807     -106.070984      -31.387239
 H         -38.808662     -107.099556      -32.367588
 H         -36.720997     -103.675423      -30.878338
 H         -35.379948     -104.302429      -31.866480
 H         -37.944958     -107.446884      -30.454388
 H         -38.081406     -105.817085      -29.732237
 H         -35.881466     -105.938644      -30.291687
 H         -36.044415     -106.644775      -31.857927
