20
 generated by VMD
 C         -19.861214      -61.740513      -16.310316
 N         -20.069971      -61.117054      -17.288486
 H         -21.687283      -63.287701      -17.389977
 H         -19.896856      -62.367641      -15.486770
 C         -22.637119      -63.751625      -17.371864
 C         -23.467339      -63.640491      -18.605774
 C         -23.219421      -64.085197      -16.101091
 C         -24.547585      -64.663216      -18.561562
 C         -24.366879      -65.014320      -16.181820
 C         -25.392824      -64.708450      -17.277609
 H         -22.829609      -63.816120      -19.437294
 H         -23.950432      -62.660992      -18.608427
 H         -22.459974      -64.452377      -15.484985
 H         -23.484251      -63.108940      -15.659893
 H         -24.019541      -65.606903      -18.614199
 H         -25.141676      -64.760925      -19.421795
 H         -24.821945      -65.192276      -15.180544
 H         -23.939709      -66.055153      -16.457676
 H         -26.002974      -65.592598      -17.374826
 H         -26.083807      -63.813850      -17.221786
