20
 generated by VMD
 C         -79.453850     -206.099701      -73.199059
 N         -80.437943     -206.380539      -72.715485
 H         -77.800842     -204.758759      -71.053810
 H         -78.448669     -205.766632      -73.519104
 C         -76.859711     -205.115692      -70.668900
 C         -75.680534     -204.438293      -71.286812
 C         -76.607483     -206.592270      -70.187027
 C         -74.745926     -204.237015      -70.139427
 C         -75.474319     -206.586319      -69.239540
 C         -74.336609     -205.608276      -69.487869
 H         -75.941635     -203.346313      -71.489258
 H         -75.209770     -204.896927      -72.147423
 H         -77.478249     -206.864899      -69.532852
 H         -76.547173     -207.168823      -71.088554
 H         -75.133018     -203.672348      -69.289909
 H         -73.843628     -203.777206      -70.477165
 H         -75.148415     -207.662704      -69.037178
 H         -75.798363     -206.246124      -68.217072
 H         -73.517807     -205.391785      -68.767845
 H         -73.850700     -206.176651      -70.254532
