20
 generated by VMD
 C         -58.869572     -152.421967      -50.684639
 N         -59.803638     -153.002670      -50.220818
 H         -57.149109     -151.229492      -48.861568
 H         -57.972775     -151.856918      -51.031334
 C         -56.274612     -151.070755      -49.502731
 C         -55.397713     -152.168411      -49.956497
 C         -55.575554     -149.749069      -49.336319
 C         -54.529915     -151.750534      -51.191853
 C         -54.827526     -149.327789      -50.571354
 C         -53.774620     -150.419586      -50.926655
 H         -56.082535     -153.055237      -50.281139
 H         -54.791389     -152.516724      -49.124092
 H         -56.273209     -148.942474      -49.135674
 H         -54.906349     -149.696350      -48.497234
 H         -55.195415     -151.572540      -52.045773
 H         -53.777515     -152.575714      -51.421688
 H         -54.326385     -148.417603      -50.278515
 H         -55.244865     -148.942886      -51.527302
 H         -53.169437     -150.173706      -51.759399
 H         -53.255135     -150.666397      -49.924576
