20
 generated by VMD
 C         -78.703461     -208.716553      -77.029243
 N         -79.356239     -208.456406      -76.134705
 H         -78.632027     -209.493942      -73.519386
 H         -78.031128     -208.860367      -77.788383
 C         -78.393539     -209.891052      -72.514557
 C         -76.997261     -209.726517      -71.753716
 C         -79.279892     -211.073975      -72.151665
 C         -77.136703     -209.964767      -70.244064
 C         -79.221474     -211.512894      -70.648964
 C         -77.794991     -211.362289      -70.099556
 H         -76.460083     -208.840378      -72.087547
 H         -76.276070     -210.455765      -72.124580
 H         -80.253204     -210.876160      -72.485802
 H         -78.998177     -211.950211      -72.741669
 H         -77.917137     -209.224854      -69.886230
 H         -76.365707     -209.857391      -69.476799
 H         -79.668747     -212.525787      -70.613495
 H         -79.876419     -210.771973      -70.153175
 H         -77.981903     -211.365707      -69.017845
 H         -77.123253     -212.158600      -70.415543
