20
 generated by VMD
 C         -50.043041     -131.243393      -46.602650
 N         -50.277958     -131.626648      -47.691257
 H         -48.083172     -132.189590      -43.865807
 H         -49.471951     -131.223358      -45.648319
 C         -48.954441     -132.272461      -43.223492
 C         -49.629772     -133.531036      -43.229458
 C         -48.741600     -131.649857      -41.852425
 C         -48.855083     -134.594543      -42.387455
 C         -47.970913     -132.621399      -40.931358
 C         -48.466072     -134.046829      -40.945423
 H         -49.771515     -133.935547      -44.252609
 H         -50.583115     -133.459259      -42.785728
 H         -48.125401     -130.726028      -41.966698
 H         -49.577778     -131.525162      -41.293262
 H         -47.854568     -134.828995      -42.840023
 H         -49.380051     -135.573914      -42.195454
 H         -48.107338     -132.172485      -39.947071
 H         -46.915337     -132.492355      -41.330513
 H         -47.859211     -134.744278      -40.309025
 H         -49.384178     -134.068420      -40.264687
