20
 generated by VMD
 C         -50.257034     -130.884964      -45.592640
 N         -50.714653     -129.859802      -46.014778
 H         -47.431732     -132.281403      -44.348259
 H         -49.600311     -131.624115      -45.029648
 C         -48.133465     -132.270660      -43.491760
 C         -48.579582     -133.563278      -42.848171
 C         -48.352356     -131.035172      -42.766262
 C         -48.007412     -133.680801      -41.431671
 C         -47.864548     -131.044571      -41.292778
 C         -48.342949     -132.388824      -40.683788
 H         -48.231491     -134.445663      -43.558655
 H         -49.660347     -133.638809      -42.869232
 H         -47.928608     -130.180359      -43.288464
 H         -49.507324     -130.814362      -42.821514
 H         -46.902550     -133.685303      -41.492004
 H         -48.310474     -134.547607      -40.784218
 H         -48.376942     -130.086380      -40.970024
 H         -46.795769     -130.921982      -41.332752
 H         -48.063881     -132.544617      -39.658401
 H         -49.476669     -132.210815      -40.587990
