20
 generated by VMD
 C         -28.133347      -72.653526      -18.129690
 N         -28.388311      -73.601944      -17.476057
 H         -24.700224      -71.280830      -18.808001
 H         -27.533133      -71.853683      -18.655117
 C         -25.169474      -71.522110      -19.750969
 C         -24.628325      -72.704689      -20.489790
 C         -25.867954      -70.460320      -20.526039
 C         -24.961586      -72.774902      -21.981239
 C         -26.492624      -70.801208      -21.730080
 C         -25.608284      -71.487061      -22.661970
 H         -24.887291      -73.582726      -19.839418
 H         -23.428289      -72.579666      -20.428345
 H         -26.570663      -70.065338      -19.847824
 H         -25.060757      -69.721840      -20.623596
 H         -25.794693      -73.489540      -22.026180
 H         -24.187202      -73.093285      -22.688847
 H         -26.824280      -69.822647      -22.180185
 H         -27.533587      -71.320282      -21.583321
 H         -26.257275      -71.788834      -23.542343
 H         -24.910267      -70.728676      -22.901667
