20
 generated by VMD
 C         -67.471985     -189.591492      -66.805046
 N         -66.395996     -189.957626      -66.479988
 H         -70.053688     -190.930679      -65.676819
 H         -68.567749     -189.375519      -66.891739
 C         -70.836906     -190.275696      -65.211754
 C         -72.168884     -191.035339      -64.737297
 C         -70.421509     -189.088455      -64.385376
 C         -73.179619     -190.027039      -63.991627
 C         -71.579239     -188.127899      -63.923946
 C         -72.567039     -188.996735      -63.133064
 H         -71.811897     -191.762268      -64.076653
 H         -72.744743     -191.686035      -65.399261
 H         -69.787148     -189.381882      -63.549324
 H         -69.594765     -188.432480      -64.963898
 H         -73.821762     -190.564423      -63.291664
 H         -73.909111     -189.610306      -64.717392
 H         -72.148827     -187.630066      -64.776749
 H         -71.206299     -187.254379      -63.302715
 H         -71.983719     -189.466019      -62.417988
 H         -73.513954     -188.438370      -62.803787
