20
 generated by VMD
 C          -9.752129      -24.799438        0.567395
 N         -10.526916      -25.269590       -0.078391
 H          -6.185588      -24.161812       -0.948495
 H          -7.984746      -23.872700       -1.043792
 C          -7.009015      -23.998344       -1.645922
 C          -7.243625      -25.176926       -2.507338
 C          -6.694839      -22.647966       -2.383604
 C          -8.030385      -24.876217       -3.722321
 C          -7.539968      -22.379808       -3.584910
 C          -7.700486      -23.607792       -4.479620
 H          -7.751065      -25.999533       -1.901508
 H          -6.265098      -25.484243       -2.928416
 H          -6.761399      -21.800331       -1.667927
 H          -5.679861      -22.799732       -2.666958
 H          -9.059809      -24.716198       -3.324466
 H          -7.910107      -25.780016       -4.350076
 H          -7.149199      -21.535980       -4.191072
 H          -8.568590      -22.084766       -3.269099
 H          -8.340139      -23.410803       -5.354627
 H          -6.767470      -23.793358       -4.966555
