20
 generated by VMD
 C         -59.917084     -156.811279      -56.203537
 N         -61.001606     -156.294052      -56.323524
 H         -59.617912     -157.650375      -53.367332
 H         -58.966068     -157.255615      -55.866325
 C         -58.831535     -157.940018      -52.763638
 C         -57.703571     -157.054703      -52.413780
 C         -58.710770     -159.380875      -52.470482
 C         -57.305408     -157.248459      -50.985867
 C         -58.420456     -159.517075      -51.009750
 C         -57.180168     -158.712219      -50.611191
 H         -58.039326     -155.997787      -52.543720
 H         -56.993237     -157.231232      -53.187679
 H         -59.554977     -160.025070      -52.577087
 H         -57.936176     -159.773987      -53.217182
 H         -58.141769     -156.799286      -50.342930
 H         -56.313198     -156.672211      -50.775669
 H         -58.325623     -160.546310      -50.736778
 H         -59.236282     -159.211197      -50.484291
 H         -57.104038     -158.817245      -49.540550
 H         -56.265713     -159.150787      -51.189495
