20
 generated by VMD
 C         -49.372944     -132.901611      -47.117817
 N         -49.893654     -131.836853      -47.017071
 H         -48.023209     -134.129333      -44.507111
 H         -49.076969     -133.917892      -47.038994
 C         -48.706497     -134.532364      -43.790672
 C         -49.076218     -136.042648      -43.878239
 C         -49.418831     -133.537186      -42.986885
 C         -49.998283     -136.499054      -42.696114
 C         -50.289703     -134.122513      -41.886070
 C         -50.975986     -135.403000      -42.355465
 H         -48.141602     -136.717789      -43.964516
 H         -49.638779     -136.220200      -44.820061
 H         -48.832581     -132.767609      -42.520344
 H         -49.974716     -132.992599      -43.717270
 H         -49.284073     -136.778244      -41.923569
 H         -50.537762     -137.417694      -42.950726
 H         -50.967030     -133.298721      -41.654915
 H         -49.765236     -134.365097      -40.907341
 H         -51.500023     -135.837860      -41.428867
 H         -51.611336     -135.182114      -43.164486
