20
 generated by VMD
 C         -51.527760     -129.783752      -45.247242
 N         -51.697372     -129.955566      -46.338512
 H         -48.245861     -130.139618      -43.520340
 H         -51.689159     -129.721161      -44.163662
 C         -47.968124     -130.353149      -42.542088
 C         -48.003735     -131.753372      -41.881306
 C         -47.509277     -129.145599      -41.644455
 C         -46.759014     -132.012726      -41.063721
 C         -46.211708     -129.563004      -40.927868
 C         -46.384674     -130.812927      -40.216282
 H         -48.132591     -132.471664      -42.636726
 H         -49.029221     -131.720413      -41.319466
 H         -47.406185     -128.257004      -42.365055
 H         -48.275860     -128.912292      -40.942749
 H         -45.856403     -132.234879      -41.643616
 H         -46.781391     -132.981842      -40.454475
 H         -46.099873     -128.706451      -40.269909
 H         -45.310814     -129.584641      -41.675339
 H         -45.480534     -131.105942      -39.673912
 H         -47.182461     -130.682175      -39.472538
