20
 generated by VMD
 C         -69.498802     -185.074478      -66.648529
 N         -69.152534     -184.934464      -67.762321
 H         -69.161652     -183.330353      -63.314949
 H         -69.672180     -185.163437      -65.631889
 C         -69.191345     -183.340179      -62.232559
 C         -69.736542     -184.403488      -61.383781
 C         -68.173737     -182.537628      -61.512974
 C         -68.530487     -185.279404      -60.945812
 C         -66.934135     -183.299423      -61.347961
 C         -67.313278     -184.493378      -60.435726
 H         -70.453156     -184.886322      -62.044586
 H         -70.219398     -184.082703      -60.414795
 H         -68.027451     -181.594345      -62.124031
 H         -68.452621     -182.287704      -60.511753
 H         -68.145599     -185.765671      -61.886536
 H         -68.985542     -186.044662      -60.280361
 H         -66.221992     -182.608459      -60.958252
 H         -66.663834     -183.893448      -62.218620
 H         -66.429176     -185.145187      -60.502602
 H         -67.390244     -184.088409      -59.452450
