20
 generated by VMD
 C         -31.613096      -76.639580      -24.740892
 N         -31.916393      -76.973000      -25.793974
 H         -29.166412      -76.923409      -22.274300
 H         -31.460793      -76.337578      -23.655430
 C         -28.557434      -77.824196      -22.292292
 C         -27.494884      -78.064758      -23.219995
 C         -28.630970      -78.731636      -21.093515
 C         -26.166199      -78.386459      -22.591856
 C         -27.274632      -79.079056      -20.491676
 C         -26.381184      -79.525269      -21.638920
 H         -27.371901      -77.087326      -23.910776
 H         -27.820810      -78.792854      -24.053482
 H         -29.268732      -78.388275      -20.335228
 H         -29.087748      -79.747658      -21.331182
 H         -25.772087      -77.535446      -21.981104
 H         -25.511917      -78.684219      -23.430824
 H         -27.434801      -79.859665      -19.739597
 H         -26.917624      -78.133041      -19.968668
 H         -25.458597      -79.904228      -21.171772
 H         -26.979410      -80.358971      -22.160896
