20
 generated by VMD
 C         -51.755478     -129.848587      -45.215733
 N         -51.677639     -129.846497      -46.397091
 H         -48.251740     -129.997803      -43.472103
 H         -51.417995     -129.744492      -44.185497
 C         -47.989075     -130.268005      -42.485611
 C         -47.926945     -131.643173      -41.871613
 C         -47.451744     -129.168747      -41.691574
 C         -46.696262     -131.922089      -41.060833
 C         -46.176971     -129.509705      -40.901821
 C         -46.296726     -130.791153      -40.059444
 H         -48.060612     -132.394379      -42.590816
 H         -48.918007     -131.662827      -41.219032
 H         -47.381973     -128.332306      -42.452194
 H         -48.223610     -128.929520      -41.052879
 H         -45.789940     -132.136520      -41.647335
 H         -46.880169     -132.966599      -40.674656
 H         -45.898285     -128.576508      -40.352032
 H         -45.334274     -129.759201      -41.715012
 H         -45.440113     -131.154770      -39.528976
 H         -47.131836     -130.651199      -39.368015
