20
 generated by VMD
 C         -59.687275     -152.058212      -49.670475
 N         -58.721081     -152.404297      -50.180569
 H         -56.432739     -150.678726      -48.421108
 H         -60.635181     -151.735199      -49.349762
 C         -55.799736     -150.559875      -49.256332
 C         -54.833939     -151.623138      -49.689590
 C         -55.286411     -149.177185      -49.209194
 C         -54.246635     -151.142258      -50.979156
 C         -54.860123     -148.716919      -50.540550
 C         -53.783043     -149.655960      -51.097462
 H         -55.369915     -152.609024      -49.613869
 H         -54.011311     -151.612610      -49.038166
 H         -56.120090     -148.541138      -48.922569
 H         -54.512211     -148.946945      -48.425922
 H         -55.049465     -151.085632      -51.710388
 H         -53.470024     -151.896072      -51.298782
 H         -54.533100     -147.601089      -50.470520
 H         -55.717087     -148.745438      -51.190296
 H         -53.653400     -149.430801      -52.109154
 H         -52.807892     -149.375275      -50.660931
