20
 generated by VMD
 C         -12.477084      -27.412607       -4.691729
 N         -13.296206      -28.149982       -4.773583
 H         -10.671127      -30.142195       -2.502998
 H         -10.888117      -28.730385       -3.710238
 C         -10.129536      -29.449600       -3.271642
 C          -9.512920      -30.264555       -4.468210
 C          -9.106745      -28.800575       -2.361073
 C          -8.670330      -29.286762       -5.341885
 C          -8.060669      -27.980585       -3.162131
 C          -7.531866      -28.580513       -4.443181
 H         -10.304982      -30.750366       -5.116743
 H          -8.986658      -31.073603       -4.051334
 H          -9.565740      -28.121868       -1.637481
 H          -8.637849      -29.526253       -1.672436
 H          -9.253663      -28.462896       -5.774904
 H          -8.182533      -29.811789       -6.188339
 H          -7.207276      -27.730923       -2.466088
 H          -8.527586      -27.037485       -3.269718
 H          -7.132791      -27.788702       -5.054620
 H          -6.769854      -29.372030       -4.229711
