20
 generated by VMD
 C         -12.611580      -27.947784       -4.665614
 N         -13.117483      -27.795992       -5.660292
 H         -10.856548      -30.760014       -2.815815
 H         -11.115317      -29.238136       -3.844426
 C         -10.365286      -30.010609       -3.439109
 C          -9.643983      -30.659582       -4.567208
 C          -9.310436      -29.449806       -2.491552
 C          -8.698827      -29.760860       -5.323795
 C          -8.496258      -28.437096       -3.198037
 C          -7.763600      -29.018917       -4.315331
 H         -10.428770      -31.023066       -5.314584
 H          -9.044540      -31.501982       -4.179534
 H          -9.767139      -28.984953       -1.661282
 H          -8.677233      -30.277576       -2.130045
 H          -9.215886      -28.945927       -5.920596
 H          -8.105795      -30.397848       -6.015182
 H          -7.728545      -28.159039       -2.417119
 H          -9.143647      -27.590988       -3.466479
 H          -7.230086      -28.288105       -4.861238
 H          -6.922011      -29.642038       -3.920271
