20
 generated by VMD
 C         -12.454822      -27.416275       -4.684799
 N         -13.281408      -28.160707       -4.787918
 H         -10.629531      -30.106577       -2.634458
 H         -10.841996      -28.802906       -3.728999
 C         -10.129691      -29.477674       -3.292789
 C          -9.530916      -30.242680       -4.464075
 C          -9.106698      -28.798901       -2.377311
 C          -8.681415      -29.294399       -5.330744
 C          -8.086212      -28.001919       -3.166862
 C          -7.550952      -28.612732       -4.419510
 H         -10.262311      -30.729185       -5.071353
 H          -8.976229      -31.183243       -4.111248
 H          -9.600381      -28.110435       -1.664366
 H          -8.606506      -29.578930       -1.741903
 H          -9.266838      -28.537926       -5.868026
 H          -8.267755      -29.831722       -6.168017
 H          -7.293157      -27.779936       -2.477036
 H          -8.515022      -26.953045       -3.286739
 H          -7.155870      -27.758104       -5.014774
 H          -6.722339      -29.307661       -4.171406
