20
 generated by VMD
 C         -56.692455     -150.117157      -47.863010
 N         -57.624142     -150.533401      -48.330593
 H         -53.600235     -148.534195      -47.287018
 H         -55.751358     -149.662674      -47.477467
 C         -53.935795     -148.468323      -48.297966
 C         -53.422127     -149.114288      -49.498795
 C         -54.831997     -147.229248      -48.632889
 C         -54.251961     -149.027313      -50.769676
 C         -55.559227     -147.079636      -49.947956
 C         -54.710815     -147.597122      -51.019047
 H         -53.188202     -150.146301      -49.569077
 H         -52.548298     -148.515503      -49.722748
 H         -55.491371     -147.116455      -47.763012
 H         -54.161373     -146.443909      -48.572144
 H         -55.016640     -149.820297      -50.618191
 H         -53.711479     -149.352707      -51.672882
 H         -55.744030     -146.025681      -50.313148
 H         -56.468388     -147.580200      -49.989338
 H         -55.237396     -147.648392      -51.980846
 H         -53.855301     -147.017471      -51.151161
