20
 generated by VMD
 C         -78.223526     -204.120834      -69.192825
 N         -79.123764     -203.979782      -69.977646
 H         -75.869469     -202.602051      -67.825172
 H         -77.361847     -204.268906      -68.520508
 C         -75.203735     -202.100143      -68.430511
 C         -75.366142     -200.687531      -68.954239
 C         -74.022987     -202.867172      -68.887596
 C         -74.742561     -200.558090      -70.373726
 C         -72.936508     -202.102737      -69.701866
 C         -73.438896     -201.089523      -70.722679
 H         -74.913208     -200.008270      -68.231911
 H         -76.452576     -200.379089      -69.060928
 H         -73.500755     -203.235855      -68.009171
 H         -74.499466     -203.640900      -69.593674
 H         -74.756912     -199.501343      -70.606148
 H         -75.460190     -200.850845      -71.184685
 H         -72.191010     -202.669006      -70.227425
 H         -72.592346     -201.496185      -68.866936
 H         -72.737564     -200.224167      -70.867271
 H         -73.510452     -201.512192      -71.681221
