20
 generated by VMD
 C         -79.147652     -209.236771      -76.886276
 N         -79.010651     -209.888733      -75.934998
 H         -77.830086     -209.620773      -73.361290
 H         -79.294121     -208.531372      -77.781006
 C         -78.081924     -210.521851      -72.726082
 C         -77.178497     -210.942444      -71.656639
 C         -79.268242     -211.358856      -73.046288
 C         -77.953255     -211.499985      -70.448685
 C         -79.933159     -212.029755      -71.809387
 C         -78.996346     -212.582245      -70.794395
 H         -76.471825     -210.058075      -71.397255
 H         -76.517586     -211.790375      -72.076942
 H         -80.025620     -210.835709      -73.545731
 H         -79.089050     -212.234238      -73.666039
 H         -78.468513     -210.614075      -70.002205
 H         -77.254990     -211.838348      -69.638496
 H         -80.743744     -212.806488      -72.089684
 H         -80.427368     -211.251465      -71.356720
 H         -79.500046     -212.956726      -69.861359
 H         -78.470367     -213.432571      -71.242142
