20
 generated by VMD
 C         -38.257618      -98.614822      -27.831076
 N         -38.264091      -99.581268      -27.168358
 H         -37.424252      -97.923721      -30.405287
 H         -38.461716      -97.812141      -28.527391
 C         -36.420616      -97.501228      -30.666491
 C         -35.531631      -98.096069      -31.866367
 C         -35.670582      -96.984436      -29.527906
 C         -34.517349      -97.035965      -32.207432
 C         -34.472984      -96.073334      -29.849428
 C         -33.581860      -96.771538      -31.020393
 H         -36.194836      -98.249229      -32.691833
 H         -35.200008      -99.093506      -31.510471
 H         -36.298470      -96.522667      -28.806986
 H         -35.333683      -97.934738      -29.125076
 H         -35.020859      -96.123665      -32.579781
 H         -33.845379      -97.340240      -33.172318
 H         -33.831409      -96.019424      -28.936068
 H         -34.768852      -95.124130      -30.198818
 H         -32.800713      -96.053139      -31.177111
 H         -33.086861      -97.741257      -30.881397
