20
 generated by VMD
 C          -9.202456      -24.000326        2.094848
 N          -8.990115      -25.046549        2.386562
 H          -7.713175      -23.299574       -0.803871
 H          -8.880617      -22.735561       -2.019083
 C          -7.836517      -23.040504       -1.875140
 C          -7.635118      -24.244667       -2.860557
 C          -7.015274      -21.797739       -2.162288
 C          -7.589781      -23.716923       -4.364638
 C          -6.952485      -21.391115       -3.691508
 C          -6.606368      -22.591894       -4.550461
 H          -8.480883      -25.001226       -2.813761
 H          -6.695338      -24.627544       -2.627104
 H          -7.271152      -20.952112       -1.474978
 H          -5.981627      -21.978931       -1.876332
 H          -8.613825      -23.340595       -4.552452
 H          -7.346602      -24.584381       -5.000614
 H          -6.262532      -20.527475       -3.841215
 H          -7.943010      -21.025402       -4.055368
 H          -6.545703      -22.267216       -5.602836
 H          -5.579531      -22.953682       -4.401859
