20
 generated by VMD
 C         -77.361465     -202.901031      -68.688187
 N         -77.551254     -203.888779      -68.051964
 H         -75.438911     -201.655701      -67.607170
 H         -77.090012     -201.872131      -69.039879
 C         -74.781448     -201.109863      -68.254074
 C         -75.121407     -199.721207      -68.573280
 C         -73.814323     -201.898010      -69.015976
 C         -74.292160     -199.104767      -69.700027
 C         -73.089081     -201.085480      -70.146881
 C         -74.030449     -200.049805      -70.820900
 H         -74.986435     -199.059113      -67.699913
 H         -76.125847     -199.628601      -68.863480
 H         -73.061554     -202.295868      -68.371208
 H         -74.340775     -202.777481      -69.495689
 H         -73.425247     -198.620300      -69.218552
 H         -74.992104     -198.383377      -70.096344
 H         -72.766655     -201.675491      -70.952286
 H         -72.289734     -200.541214      -69.790901
 H         -73.397881     -199.544220      -71.615807
 H         -74.837593     -200.613281      -71.247612
