20
 generated by VMD
 C          -1.232220      -12.588364        1.294866
 N          -0.705823      -12.739888        0.287135
 H          -4.186164      -12.930498        1.147467
 H          -5.768109      -13.152267        0.546679
 C          -4.999063      -13.646531        1.156361
 C          -5.333069      -14.095409        2.597088
 C          -4.476510      -14.912810        0.463596
 C          -6.438400      -15.139122        2.632148
 C          -5.522077      -16.099707        0.439523
 C          -6.074275      -16.375618        1.874089
 H          -5.795983      -13.184670        3.088308
 H          -4.435702      -14.546010        3.065983
 H          -4.198493      -14.652808       -0.582669
 H          -3.508125      -15.217849        0.954483
 H          -7.326400      -14.725995        2.170911
 H          -6.668588      -15.414346        3.682030
 H          -5.054721      -17.043545        0.075890
 H          -6.366285      -15.864478       -0.210813
 H          -6.839099      -17.122211        1.982784
 H          -5.215730      -16.685133        2.432854
