20
 generated by VMD
 C         -21.347694      -52.442120      -11.411501
 N         -21.428427      -52.894627      -10.375357
 H         -19.920441      -50.449139      -13.564241
 H         -21.169405      -51.993038      -12.339186
 C         -18.925142      -50.860485      -13.303326
 C         -18.334064      -51.853756      -14.258383
 C         -18.155424      -50.565056      -12.107359
 C         -16.754656      -51.982430      -14.333767
 C         -16.667862      -50.456615      -12.480424
 C         -16.107563      -51.794090      -12.962940
 H         -18.645748      -51.534870      -15.231380
 H         -18.790714      -52.873993      -14.166184
 H         -18.483622      -49.523819      -11.793065
 H         -18.352526      -51.305649      -11.294405
 H         -16.453323      -51.209888      -15.056628
 H         -16.406164      -52.992439      -14.640846
 H         -16.140131      -50.088024      -11.678041
 H         -16.509644      -49.756351      -13.348634
 H         -15.068155      -51.668056      -13.102921
 H         -16.266285      -52.587509      -12.270506
