20
 generated by VMD
 C         -58.562496     -161.780090      -56.453571
 N         -58.011562     -160.774689      -56.082306
 H         -59.486912     -164.838058      -55.482361
 H         -59.120937     -162.705078      -56.676331
 C         -60.175922     -164.357300      -54.851795
 C         -59.968060     -163.647964      -53.518955
 C         -61.688107     -164.381378      -55.205070
 C         -60.565296     -162.269547      -53.380733
 C         -62.559967     -163.164520      -54.740005
 C         -62.156349     -162.463806      -53.459980
 H         -58.878574     -163.441254      -53.477600
 H         -60.400539     -164.329620      -52.727955
 H         -61.754631     -164.515686      -56.287060
 H         -62.100616     -165.264862      -54.680367
 H         -60.221767     -161.491882      -54.165340
 H         -60.502792     -161.860382      -52.327728
 H         -63.561874     -163.410324      -54.751488
 H         -62.559860     -162.440369      -55.570110
 H         -62.701332     -161.516541      -53.333179
 H         -62.534885     -163.071030      -52.554962
