20
 generated by VMD
 C         -19.369938      -62.528908      -17.470360
 N         -20.187012      -62.405949      -16.674427
 H         -22.267042      -64.364899      -16.789940
 H         -18.483965      -62.460266      -18.003782
 C         -23.257679      -64.594765      -17.158396
 C         -23.698866      -64.100533      -18.479918
 C         -24.301233      -65.107018      -16.196741
 C         -24.610905      -65.147194      -19.199461
 C         -25.103983      -66.220154      -16.889355
 C         -25.640249      -65.722527      -18.220217
 H         -22.778364      -64.121078      -18.953848
 H         -24.119907      -63.149635      -18.403200
 H         -23.933586      -65.601242      -15.269449
 H         -25.128365      -64.339211      -15.979464
 H         -24.012571      -65.864449      -19.782139
 H         -25.120472      -64.615547      -20.036211
 H         -26.005360      -66.291389      -16.279707
 H         -24.664932      -67.229233      -16.855757
 H         -26.411699      -66.332062      -18.641989
 H         -26.273710      -64.837013      -17.844048
