20
 generated by VMD
 C         -79.470474     -206.576767      -73.465919
 N         -80.471893     -206.144180      -73.069931
 H         -77.983513     -204.984680      -70.649498
 H         -78.466400     -206.691833      -73.848854
 C         -76.944191     -205.319717      -70.595520
 C         -75.949654     -204.308044      -71.010620
 C         -76.691353     -206.632645      -70.037720
 C         -74.616173     -204.460327      -70.178009
 C         -75.509224     -206.505371      -69.060768
 C         -74.256340     -205.972656      -69.848724
 H         -76.377457     -203.307312      -71.007675
 H         -75.698807     -204.572723      -72.039459
 H         -77.583443     -207.089951      -69.521187
 H         -76.368233     -207.302124      -70.866425
 H         -74.653778     -204.006485      -69.158569
 H         -73.768890     -203.856018      -70.646301
 H         -75.397095     -207.456726      -68.690880
 H         -75.672920     -205.766205      -68.216125
 H         -73.432899     -205.849976      -69.164452
 H         -73.912598     -206.669281      -70.665161
