20
 generated by VMD
 C         -50.137165     -144.954208      -44.522285
 N         -49.394913     -144.046387      -44.620892
 H         -52.520622     -142.334686      -45.778900
 H         -50.828289     -145.825226      -44.620499
 C         -53.166500     -142.377655      -46.673397
 C         -52.432800     -142.422729      -47.986855
 C         -54.412903     -141.759064      -46.603508
 C         -53.319557     -142.696304      -49.114410
 C         -55.446465     -142.101288      -47.910931
 C         -54.634682     -141.852921      -49.209774
 H         -51.687546     -143.292358      -47.850243
 H         -51.945827     -141.436905      -48.028133
 H         -54.914524     -142.119278      -45.725159
 H         -54.363800     -140.661987      -46.497128
 H         -53.478291     -143.720032      -49.085453
 H         -52.840267     -142.492645      -50.028080
 H         -56.396896     -141.503052      -47.856407
 H         -55.769535     -143.142334      -47.834740
 H         -55.252884     -142.104950      -50.066181
 H         -54.324272     -140.831924      -49.206787
