20
 generated by VMD
 C         -58.949001     -152.333832      -50.713760
 N         -59.744339     -153.048141      -50.145538
 H         -57.201370     -151.231476      -48.984089
 H         -58.295937     -151.598160      -51.198112
 C         -56.281715     -150.988205      -49.529625
 C         -55.286747     -152.034042      -49.957859
 C         -55.587418     -149.711365      -49.296314
 C         -54.487637     -151.768051      -51.189075
 C         -54.772999     -149.326752      -50.516396
 C         -53.855572     -150.456802      -50.940491
 H         -55.853203     -152.983246      -50.103806
 H         -54.580894     -152.205215      -49.117477
 H         -56.300419     -148.969833      -48.933094
 H         -54.839710     -150.016617      -48.493286
 H         -55.122265     -151.699646      -52.064899
 H         -53.730415     -152.543594      -51.358479
 H         -54.239166     -148.376205      -50.417374
 H         -55.594143     -149.050613      -51.244446
 H         -53.317047     -150.038986      -51.793613
 H         -52.976849     -150.424026      -50.287563
