20
 generated by VMD
 C         -35.449528      -97.272354      -25.869745
 N         -34.476166      -97.857246      -26.110739
 H         -35.696785      -94.470726      -27.695755
 H         -36.521145      -96.826180      -25.738201
 C         -35.275768      -94.341125      -28.700298
 C         -35.935249      -95.147766      -29.704775
 C         -33.921791      -93.684341      -28.963564
 C         -35.791401      -94.586662      -31.148499
 C         -33.752880      -93.349365      -30.471680
 C         -34.322300      -94.381943      -31.485554
 H         -36.964737      -95.180473      -29.531956
 H         -35.572418      -96.168404      -29.756338
 H         -33.699406      -92.853928      -28.301785
 H         -33.272697      -94.579071      -28.747129
 H         -36.343155      -93.705772      -31.264540
 H         -36.147942      -95.349365      -31.857761
 H         -32.742863      -93.154823      -30.563818
 H         -34.406570      -92.494835      -30.814297
 H         -33.936432      -94.063530      -32.621834
 H         -33.767517      -95.377960      -31.311321
