20
 generated by VMD
 C         -20.279234      -61.792950      -17.627979
 N         -19.607780      -61.511345      -16.759827
 H         -21.751797      -65.134033      -16.644096
 H         -20.846518      -62.279354      -18.521105
 C         -22.822557      -65.112389      -16.934553
 C         -23.160160      -64.349991      -18.236952
 C         -23.989340      -65.275833      -15.996041
 C         -24.486593      -64.720978      -18.965900
 C         -25.172670      -65.669655      -16.804022
 C         -25.653591      -64.726357      -17.926931
 H         -22.345148      -64.468163      -18.892717
 H         -23.262779      -63.334457      -18.067099
 H         -23.750294      -66.073776      -15.196839
 H         -24.158762      -64.281128      -15.669821
 H         -24.237150      -65.709709      -19.353643
 H         -24.642113      -64.063622      -19.783190
 H         -26.010605      -65.795090      -16.022497
 H         -25.151970      -66.734978      -17.148218
 H         -26.509197      -65.189384      -18.513336
 H         -25.976007      -63.734669      -17.627144
