20
 generated by VMD
 C         -11.812848      -37.969780       -7.862898
 N         -11.204077      -37.601059       -6.977436
 H         -12.578806      -41.441322       -8.808555
 H         -13.494854      -40.485249       -7.767496
 C         -13.558979      -41.187881       -8.534743
 C         -14.406239      -42.342831       -8.112483
 C         -14.178191      -40.501663       -9.685275
 C         -15.942846      -41.964458       -7.887584
 C         -15.542626      -39.916451       -9.309679
 C         -16.468592      -41.046661       -8.959730
 H         -14.036271      -42.811981       -7.240996
 H         -14.452926      -43.113689       -8.875905
 H         -13.545600      -39.746006      -10.115734
 H         -14.366122      -41.290508      -10.481294
 H         -16.058722      -41.564644       -6.869484
 H         -16.547319      -42.871742       -7.883048
 H         -15.926116      -39.366344      -10.199881
 H         -15.429739      -39.166260       -8.551560
 H         -17.433372      -40.678333       -8.725564
 H         -16.642622      -41.723431       -9.794500
