20
 generated by VMD
 C         -38.432087     -113.058510      -36.455654
 N         -37.278889     -112.997795      -36.244770
 H         -41.399281     -115.209206      -35.019333
 H         -39.484840     -113.067986      -36.572174
 C         -42.283676     -114.766907      -35.503029
 C         -42.124996     -114.605354      -36.961720
 C         -43.540565     -114.251663      -34.826630
 C         -43.405300     -115.076797      -37.629925
 C         -44.767956     -114.443001      -35.667858
 C         -44.560566     -114.269836      -37.160488
 H         -41.145500     -114.935532      -37.255917
 H         -41.989368     -113.453415      -36.986225
 H         -43.838829     -114.602119      -33.822552
 H         -43.432674     -113.148323      -34.582748
 H         -43.547409     -116.143539      -37.500233
 H         -43.282532     -114.843628      -38.659508
 H         -45.575382     -113.882622      -35.284573
 H         -45.170712     -115.412415      -35.506760
 H         -45.562859     -114.620689      -37.681023
 H         -44.255638     -113.271889      -37.448963
