20
 generated by VMD
 C         -22.776674      -54.791306      -16.362909
 N         -23.667063      -55.327339      -15.907043
 H         -19.112774      -54.942028      -15.514502
 H         -21.711494      -54.649719      -16.554153
 C         -19.150190      -55.691753      -14.791208
 C         -19.476171      -55.578724      -13.364604
 C         -18.669039      -56.995258      -15.342515
 C         -19.725027      -56.813858      -12.526184
 C         -19.438452      -58.177269      -14.760129
 C         -19.458101      -58.150604      -13.191032
 H         -20.348017      -54.914375      -13.199475
 H         -18.637928      -55.076248      -12.874458
 H         -18.813025      -56.803944      -16.414125
 H         -17.630625      -57.137615      -15.267192
 H         -20.755487      -56.778069      -12.155010
 H         -19.156586      -56.695457      -11.573298
 H         -18.928930      -59.084511      -15.055078
 H         -20.513735      -58.061531      -15.067397
 H         -20.070967      -58.932491      -12.730511
 H         -18.445925      -58.395390      -12.858204
