20
 generated by VMD
 C         -21.781395      -52.409561      -11.364532
 N         -21.610315      -52.914993      -10.343822
 H         -19.988861      -51.426868      -13.848049
 H         -21.526623      -51.730263      -12.342802
 C         -18.958038      -51.329178      -13.738239
 C         -18.054268      -51.882854      -14.770906
 C         -18.476423      -51.170692      -12.335815
 C         -16.575836      -51.917114      -14.437300
 C         -16.905973      -51.107765      -12.133565
 C         -16.200363      -52.147175      -12.956523
 H         -18.143730      -51.449516      -15.777636
 H         -18.215887      -52.973927      -14.790972
 H         -19.013649      -50.238838      -11.960791
 H         -18.795050      -51.980572      -11.679294
 H         -16.051561      -51.015667      -14.744094
 H         -16.129826      -52.675274      -15.104955
 H         -16.645823      -51.276825      -11.128098
 H         -16.502432      -50.128613      -12.351666
 H         -15.171789      -51.923145      -12.796179
 H         -16.292604      -53.137260      -12.576277
