20
 generated by VMD
 C         -68.048378     -179.042618      -58.257645
 N         -67.075378     -178.521683      -57.893112
 H         -65.995911     -176.585007      -59.040268
 H         -69.001778     -179.457504      -58.622189
 C         -65.353821     -175.862030      -59.536659
 C         -66.094551     -174.695068      -60.223537
 C         -63.854736     -175.902634      -59.624477
 C         -65.327858     -173.463303      -60.218651
 C         -63.127121     -174.527451      -59.736172
 C         -63.867252     -173.471710      -60.565750
 H         -67.044693     -174.545486      -59.760128
 H         -66.429352     -175.005341      -61.278336
 H         -63.490822     -176.532501      -58.869896
 H         -63.725571     -176.355881      -60.600086
 H         -65.429565     -172.990234      -59.179615
 H         -65.740868     -172.746216      -60.984467
 H         -62.096657     -174.542908      -60.209190
 H         -63.041119     -174.177887      -58.709209
 H         -63.436913     -172.479843      -60.684570
 H         -63.725643     -173.851089      -61.630527
