20
 generated by VMD
 C         -69.087234     -180.734726      -62.542931
 N         -70.073143     -180.319305      -62.123795
 H         -66.662262     -181.125000      -59.415031
 H         -68.155876     -181.196228      -62.885468
 C         -66.376480     -180.165741      -59.928143
 C         -65.160065     -180.292252      -60.782467
 C         -66.957077     -178.897461      -59.507908
 C         -64.826050     -179.074936      -61.552658
 C         -66.505341     -177.684235      -60.230652
 C         -65.019287     -177.744125      -60.765606
 H         -65.082123     -181.236664      -61.398773
 H         -64.347069     -180.478043      -60.010639
 H         -68.079201     -179.035065      -59.510845
 H         -66.719688     -178.600754      -58.562935
 H         -65.499168     -178.983627      -62.501640
 H         -63.714310     -179.120468      -61.797451
 H         -66.726028     -176.803085      -59.629196
 H         -67.200584     -177.487411      -61.088573
 H         -64.936852     -176.872162      -61.301979
 H         -64.467369     -177.508392      -59.858608
