20
 generated by VMD
 C         -67.444786     -192.459641      -67.081627
 N         -68.540840     -192.749496      -66.776817
 H         -69.786026     -190.261749      -65.066727
 H         -66.388397     -192.264069      -67.209442
 C         -70.919510     -190.209656      -65.114975
 C         -71.666092     -190.801651      -66.202026
 C         -71.595604     -189.662170      -63.882454
 C         -72.629524     -191.903320      -65.694199
 C         -73.095413     -189.949905      -64.020805
 C         -73.384155     -191.439301      -64.381996
 H         -70.896736     -191.103470      -67.015839
 H         -72.312134     -190.035507      -66.592743
 H         -71.212601     -190.328506      -62.952457
 H         -71.286819     -188.622299      -63.832150
 H         -71.982216     -192.841309      -65.468864
 H         -73.371246     -192.387466      -66.334633
 H         -73.538994     -189.266510      -64.710289
 H         -73.634720     -189.803131      -63.045204
 H         -73.149483     -192.012497      -63.469070
 H         -74.398628     -191.597778      -64.589012
