20
 generated by VMD
 C         -29.981951      -79.921288      -26.285412
 N         -29.389196      -79.936203      -27.262495
 H         -28.439180      -82.634430      -25.287256
 H         -30.440010      -79.971771      -25.281668
 C         -29.224039      -82.902840      -24.552828
 C         -29.145485      -82.375992      -23.091850
 C         -29.965124      -84.167084      -24.798092
 C         -30.537741      -82.498825      -22.324633
 C         -31.292946      -84.126976      -24.032818
 C         -31.214193      -83.770813      -22.588047
 H         -28.938604      -81.267174      -23.207584
 H         -28.244226      -82.732811      -22.604193
 H         -30.187607      -84.190422      -25.866894
 H         -29.431463      -85.117081      -24.511599
 H         -31.201084      -81.704041      -22.703102
 H         -30.310709      -82.413597      -21.245979
 H         -31.850677      -85.070694      -24.066957
 H         -31.946400      -83.287544      -24.520569
 H         -32.246326      -83.705612      -22.171154
 H         -30.708084      -84.398918      -21.911713
