20
 generated by VMD
 C         -21.264208      -56.250526      -17.256807
 N         -20.856844      -55.342712      -17.867519
 H         -23.187971      -58.618546      -15.828953
 H         -21.406187      -57.219749      -17.128780
 C         -22.430227      -59.254066      -15.347369
 C         -21.919403      -58.942890      -13.950404
 C         -21.684444      -60.121586      -16.219944
 C         -20.989620      -60.034592      -13.346600
 C         -20.411978      -60.836494      -15.714352
 C         -20.494486      -61.251286      -14.254242
 H         -22.746515      -58.535343      -13.361778
 H         -21.291370      -58.060852      -13.944564
 H         -22.407467      -60.892467      -16.566036
 H         -21.475384      -59.562008      -17.140736
 H         -21.342693      -60.413952      -12.351063
 H         -20.013750      -59.590816      -13.057295
 H         -19.569206      -60.055573      -15.733256
 H         -20.018312      -61.546509      -16.477655
 H         -21.298273      -62.002716      -14.188606
 H         -19.528683      -61.595192      -13.851628
