20
 generated by VMD
 C         -58.488712     -151.985489      -49.486820
 N         -59.645390     -152.212662      -49.273315
 H         -56.122791     -149.891739      -48.236740
 H         -57.410168     -151.917542      -49.673035
 C         -55.209587     -149.641220      -48.770481
 C         -54.286716     -150.712082      -49.464977
 C         -54.822250     -148.192657      -48.883862
 C         -54.191669     -150.412628      -50.927402
 C         -54.759636     -147.978973      -50.497200
 C         -53.852867     -148.943329      -51.221012
 H         -54.697002     -151.650574      -49.162819
 H         -53.251682     -150.475800      -49.062569
 H         -55.615620     -147.424255      -48.472599
 H         -53.847748     -147.870850      -48.440632
 H         -55.169281     -150.546677      -51.456387
 H         -53.488789     -151.133392      -51.397320
 H         -54.539963     -146.996368      -50.803799
 H         -55.884914     -147.937225      -50.956333
 H         -53.748775     -148.800964      -52.337353
 H         -52.881721     -148.713943      -50.839497
