20
 generated by VMD
 C         -61.527061     -154.638031      -53.914082
 N         -62.006142     -155.376953      -53.202953
 H         -58.025684     -154.600342      -52.418629
 H         -61.092693     -153.919922      -54.547737
 C         -57.166416     -154.572617      -51.745247
 C         -57.363075     -154.320770      -50.263012
 C         -55.844349     -154.484207      -52.425499
 C         -56.019547     -154.701065      -49.501240
 C         -54.688614     -154.897888      -51.569794
 C         -54.790298     -154.250198      -50.244892
 H         -58.162933     -154.759384      -49.728710
 H         -57.705948     -153.286026      -50.223141
 H         -55.788239     -155.200226      -53.281143
 H         -55.836842     -153.498795      -52.834793
 H         -56.083485     -155.806778      -49.370411
 H         -56.020569     -154.400757      -48.475811
 H         -53.785019     -154.435837      -52.024006
 H         -54.497086     -155.935822      -51.570114
 H         -53.918392     -154.359741      -49.617828
 H         -54.907204     -153.110962      -50.333363
