20
 generated by VMD
 C         -50.703358     -130.914612      -45.802395
 N         -50.529491     -129.927307      -46.488388
 H         -47.953152     -132.189560      -44.478474
 H         -51.160252     -131.822723      -45.483494
 C         -48.046028     -132.339020      -43.442921
 C         -48.494709     -133.655350      -42.922234
 C         -48.316051     -131.152664      -42.608753
 C         -48.136707     -133.819809      -41.463390
 C         -47.804024     -131.290024      -41.144787
 C         -48.501102     -132.590820      -40.649651
 H         -48.196877     -134.495163      -43.450359
 H         -49.653713     -133.590561      -43.026215
 H         -47.817799     -130.168915      -43.037636
 H         -49.400711     -130.922699      -42.662479
 H         -47.105541     -134.199692      -41.249077
 H         -48.779259     -134.641617      -41.078934
 H         -48.024681     -130.498520      -40.530567
 H         -46.736889     -131.432159      -40.992477
 H         -48.166534     -132.820023      -39.520287
 H         -49.557964     -132.445587      -40.744987
