20
 generated by VMD
 C         -68.232498     -195.265121      -64.979591
 N         -68.798782     -196.156296      -64.551910
 H         -71.346001     -194.562592      -67.057541
 H         -67.815422     -194.318695      -65.342842
 C         -72.204178     -193.926132      -66.917015
 C         -72.066704     -192.456940      -66.842323
 C         -73.376129     -194.301651      -67.837463
 C         -73.271049     -191.947174      -66.062416
 C         -74.624847     -193.879059      -66.979965
 C         -74.599030     -192.430466      -66.678383
 H         -71.887001     -192.007141      -67.756615
 H         -71.090202     -192.159592      -66.313713
 H         -73.311607     -193.985245      -68.831604
 H         -73.291420     -195.380493      -67.933311
 H         -73.404060     -190.837112      -66.046349
 H         -73.114647     -192.200226      -65.000252
 H         -74.616646     -194.394470      -66.017822
 H         -75.577888     -194.175156      -67.519890
 H         -74.880333     -191.721390      -67.526146
 H         -75.331795     -192.114380      -65.888565
