20
 generated by VMD
 C         -79.499664     -205.424469      -70.959259
 N         -80.276619     -206.126587      -71.395905
 H         -77.343758     -203.076218      -69.965836
 H         -78.673988     -204.736740      -70.666527
 C         -76.298775     -203.284470      -70.186943
 C         -75.294121     -202.210358      -70.460930
 C         -75.769844     -204.694244      -70.076118
 C         -73.837135     -202.667023      -70.411423
 C         -74.605095     -204.736481      -69.078880
 C         -73.478867     -203.939240      -69.742340
 H         -75.550400     -201.503799      -69.715607
 H         -75.472885     -201.733444      -71.474533
 H         -76.565224     -205.198029      -69.554878
 H         -75.487320     -205.055466      -71.041100
 H         -73.203400     -201.884094      -70.040283
 H         -73.463287     -202.855118      -71.415947
 H         -74.381882     -205.750153      -68.746246
 H         -74.855789     -204.038300      -68.224846
 H         -72.862701     -203.716187      -68.906113
 H         -72.917358     -204.542084      -70.438492
