20
 generated by VMD
 C          -2.004123      -13.594150        0.759522
 N          -1.683747      -13.003477        1.645627
 H          -3.526660      -16.937519        1.459180
 H          -4.124036      -16.663265       -0.161503
 C          -4.454814      -16.808453        0.887137
 C          -5.137856      -15.522981        1.362581
 C          -5.358133      -18.029995        0.954034
 C          -6.366206      -15.291314        0.471489
 C          -6.615432      -17.832119        0.127839
 C          -7.344726      -16.484558        0.397919
 H          -4.447824      -14.646702        1.356147
 H          -5.489920      -15.603526        2.386710
 H          -4.820592      -18.861269        0.569939
 H          -5.577753      -18.180899        1.989120
 H          -5.945337      -15.023148       -0.478357
 H          -6.904605      -14.456703        0.879143
 H          -7.293517      -18.655388        0.353897
 H          -6.343703      -17.875854       -0.902455
 H          -7.907651      -16.360416       -0.528132
 H          -8.079920      -16.521063        1.221587
