20
 generated by VMD
 C         -61.693069     -154.605331      -53.881725
 N         -62.225582     -155.615768      -53.793156
 H         -58.197575     -154.880600      -52.133446
 H         -61.342300     -153.634583      -54.101486
 C         -57.248978     -154.909210      -51.624298
 C         -57.325817     -154.336411      -50.233147
 C         -55.918060     -154.685837      -52.416004
 C         -56.077049     -154.675308      -49.497570
 C         -54.682911     -155.087570      -51.620731
 C         -54.676910     -154.449615      -50.246983
 H         -58.346760     -154.632111      -49.799706
 H         -57.358643     -153.243469      -50.125599
 H         -56.140781     -155.197556      -53.361111
 H         -55.783791     -153.666336      -52.615711
 H         -55.986889     -155.730972      -49.320763
 H         -55.993507     -154.334641      -48.455162
 H         -53.743938     -154.780457      -52.203487
 H         -54.523716     -156.137375      -51.483185
 H         -53.841774     -154.781784      -49.615768
 H         -54.485142     -153.336182      -50.343887
