20
 generated by VMD
 C         -49.475212     -133.018677      -47.116875
 N         -49.728344     -131.836136      -47.011436
 H         -47.827045     -134.332733      -44.392601
 H         -49.076080     -134.007874      -47.358562
 C         -48.650200     -134.616974      -43.791828
 C         -49.128464     -135.953278      -43.905552
 C         -49.491844     -133.585754      -43.085220
 C         -50.004139     -136.531219      -42.739662
 C         -50.364964     -134.211502      -41.894249
 C         -51.069992     -135.487823      -42.295788
 H         -48.217339     -136.636978      -44.052322
 H         -49.684578     -136.071976      -44.860535
 H         -48.819515     -132.902924      -42.549435
 H         -50.019253     -132.972763      -43.826130
 H         -49.298943     -136.813080      -41.982235
 H         -50.339474     -137.458542      -43.121529
 H         -51.140621     -133.493698      -41.621384
 H         -49.777775     -134.338470      -40.954437
 H         -51.486485     -135.968353      -41.372643
 H         -51.719215     -135.247818      -43.061035
