20
 generated by VMD
 C         -77.910820     -203.233582      -69.597511
 N         -78.368233     -204.144653      -69.050095
 H         -75.126518     -201.792084      -67.134933
 H         -77.488655     -202.501724      -70.232079
 C         -74.969757     -201.621506      -68.167801
 C         -74.986359     -200.193573      -68.571976
 C         -73.863068     -202.437637      -68.804298
 C         -74.711151     -199.938553      -70.004250
 C         -73.014107     -201.635681      -69.914825
 C         -73.940865     -200.910721      -70.844070
 H         -74.208664     -199.616379      -67.986496
 H         -75.957306     -199.842972      -68.250359
 H         -73.154022     -202.794464      -67.984024
 H         -74.346924     -203.360703      -69.326706
 H         -74.368263     -198.890244      -70.018860
 H         -75.709618     -199.796753      -70.399704
 H         -72.389595     -202.282150      -70.520233
 H         -72.230629     -201.038193      -69.421860
 H         -73.514679     -200.432144      -71.773087
 H         -74.700348     -201.648788      -71.243324
