20
 generated by VMD
 C         -38.845718     -109.843353      -35.901554
 N         -37.943588     -109.150291      -36.072334
 H         -42.221119     -110.488014      -37.011360
 H         -39.758461     -110.334213      -35.721378
 C         -41.937244     -110.965660      -36.101196
 C         -41.752728     -112.499916      -36.231411
 C         -42.363384     -110.225784      -34.824570
 C         -41.131355     -113.053635      -34.901966
 C         -41.585316     -110.834953      -33.720730
 C         -41.826450     -112.403374      -33.637196
 H         -41.080372     -112.637032      -37.060886
 H         -42.653683     -113.032669      -36.616379
 H         -42.062840     -109.140007      -35.064098
 H         -43.456787     -110.395790      -34.771690
 H         -40.068359     -112.730423      -34.881905
 H         -41.177155     -114.201302      -34.948280
 H         -41.818794     -110.394081      -32.735519
 H         -40.498188     -110.852417      -33.864147
 H         -41.277519     -112.714882      -32.725151
 H         -42.960125     -112.689690      -33.644249
