20
 generated by VMD
 C         -30.165876      -92.732399      -25.724922
 N         -31.295454      -92.937111      -25.678465
 H         -32.848690      -90.915833      -26.242649
 H         -29.186644      -92.528061      -25.877707
 C         -33.503757      -90.977974      -27.143166
 C         -34.380608      -92.124397      -27.396891
 C         -33.194592      -90.318382      -28.456509
 C         -35.681324      -91.672836      -28.222740
 C         -34.286591      -89.892784      -29.378572
 C         -35.322166      -91.087486      -29.632429
 H         -34.799355      -92.552200      -26.375507
 H         -34.104721      -93.010201      -28.040245
 H         -32.687065      -89.397545      -28.162989
 H         -32.495026      -91.034615      -28.967232
 H         -36.268726      -90.988693      -27.625233
 H         -36.249557      -92.644348      -28.286160
 H         -33.951958      -89.705139      -30.447470
 H         -34.872505      -89.006653      -28.957245
 H         -36.139355      -90.529839      -30.004263
 H         -35.093071      -91.930450      -30.275295
