20
 generated by VMD
 C         -16.837793      -47.829891       -7.218574
 N         -16.424622      -46.789619       -7.148155
 H         -16.809343      -48.579147      -10.320446
 H         -15.469913      -48.345589      -11.447387
 C         -16.434458      -47.940891      -11.112532
 C         -16.220524      -46.452774      -10.682015
 C         -17.411568      -47.892124      -12.253950
 C         -15.737765      -45.543194      -11.806715
 C         -17.148369      -46.850441      -13.333096
 C         -16.810017      -45.420921      -12.884096
 H         -15.478542      -46.417191       -9.834682
 H         -17.123991      -46.034439      -10.207447
 H         -17.619890      -48.882988      -12.707626
 H         -18.371054      -47.602142      -11.732767
 H         -14.776269      -45.858429      -12.257672
 H         -15.649425      -44.538322      -11.389862
 H         -18.015402      -46.771358      -13.906741
 H         -16.315796      -47.214077      -13.963560
 H         -16.480516      -44.820568      -13.729710
 H         -17.664873      -45.031654      -12.387210
