20
 generated by VMD
 C         -58.487846     -160.471603      -56.868237
 N         -58.635792     -159.847046      -57.899830
 H         -58.878845     -163.576096      -54.979843
 H         -58.329338     -161.039917      -55.945339
 C         -59.701950     -163.319794      -54.326984
 C         -59.400452     -163.191986      -52.811543
 C         -61.152378     -163.474503      -54.780178
 C         -60.404808     -162.203171      -52.023693
 C         -61.923557     -162.260986      -54.231834
 C         -61.822247     -162.135773      -52.646408
 H         -58.438747     -162.697281      -52.734470
 H         -59.583599     -164.205170      -52.330490
 H         -61.194584     -163.470749      -55.863907
 H         -61.561638     -164.387634      -54.403198
 H         -60.035374     -161.099045      -51.911091
 H         -60.430988     -162.490311      -50.980625
 H         -62.981522     -162.245300      -54.656208
 H         -61.550865     -161.185669      -54.453072
 H         -62.340221     -161.228668      -52.375755
 H         -62.450989     -163.035660      -52.361496
