20
 generated by VMD
 C         -15.469728      -47.625072       -6.250052
 N         -15.624476      -46.619499       -5.796937
 H         -16.546532      -47.250626       -9.937407
 H         -15.227500      -47.082172      -10.982891
 C         -16.251379      -46.816406      -10.882656
 C         -16.452141      -45.339500      -10.873906
 C         -17.119293      -47.402084      -11.998621
 C         -16.182203      -44.585468      -12.168025
 C         -16.888794      -46.586895      -13.290236
 C         -17.094105      -45.048698      -13.279956
 H         -15.910210      -44.947956       -9.975989
 H         -17.512999      -45.103088      -10.607916
 H         -16.808006      -48.477627      -12.131620
 H         -18.169100      -47.403004      -11.668738
 H         -15.156837      -44.767105      -12.520791
 H         -16.267740      -43.509445      -11.968973
 H         -17.696672      -46.821510      -13.998824
 H         -15.903193      -46.777042      -13.656369
 H         -16.716206      -44.661167      -14.273864
 H         -18.116880      -44.834488      -13.004426
