20
 generated by VMD
 C         -39.631161     -105.569359      -37.035583
 N         -40.483810     -106.264359      -37.370716
 H         -38.910934     -107.801201      -34.941406
 H         -38.829227     -104.897209      -36.894035
 C         -39.269081     -108.632370      -34.283581
 C         -38.409851     -109.018738      -33.227875
 C         -40.675648     -109.138733      -34.367447
 C         -39.048695     -109.165916      -31.847918
 C         -41.361355     -109.375099      -33.053391
 C         -40.364758     -110.010094      -32.084984
 H         -37.729675     -108.117432      -33.142773
 H         -37.877743     -109.908119      -33.556332
 H         -41.357777     -108.353073      -34.826378
 H         -40.751347     -110.032288      -35.074780
 H         -39.325905     -108.163284      -31.462439
 H         -38.178143     -109.563263      -31.196331
 H         -42.233845     -109.994377      -33.230824
 H         -41.821510     -108.534424      -32.655571
 H         -40.894600     -110.030991      -31.021696
 H         -40.174866     -110.987114      -32.393375
