20
 generated by VMD
 C         -59.042843     -168.362198      -55.119007
 N         -58.002766     -168.844360      -54.881374
 H         -62.563297     -169.126434      -55.822960
 H         -60.013550     -167.872269      -55.203197
 C         -62.546700     -168.124557      -56.344395
 C         -62.685211     -168.142578      -57.825546
 C         -62.842758     -166.790100      -55.575325
 C         -64.125366     -167.615295      -58.193321
 C         -64.165024     -166.269470      -56.069229
 C         -64.326401     -166.270813      -57.533283
 H         -62.576870     -169.065186      -58.190853
 H         -61.861839     -167.496536      -58.370121
 H         -62.759350     -167.078217      -54.432961
 H         -62.039883     -166.059311      -55.863945
 H         -64.968468     -168.236053      -58.027313
 H         -64.311264     -167.399033      -59.231983
 H         -64.251411     -165.307114      -55.648621
 H         -64.974831     -166.713806      -55.585091
 H         -65.394844     -166.047134      -57.834690
 H         -63.782448     -165.424805      -58.069084
