20
 generated by VMD
 C         -18.314533      -50.253670       -9.445839
 N         -19.430016      -50.338055       -9.357886
 H         -16.349024      -47.044701      -10.082617
 H         -17.557255      -48.376984      -10.244196
 C         -16.829552      -47.716354      -10.829082
 C         -15.707937      -48.626259      -11.437036
 C         -17.416922      -46.914883      -11.974150
 C         -16.179241      -49.500450      -12.633315
 C         -18.016165      -47.892281      -13.018364
 C         -17.018797      -48.762089      -13.707605
 H         -15.430176      -49.436043      -10.691985
 H         -14.853339      -47.982018      -11.663578
 H         -18.171951      -46.265026      -11.507692
 H         -16.652681      -46.261265      -12.454122
 H         -16.838226      -50.296440      -12.221393
 H         -15.249857      -49.872433      -13.054275
 H         -18.575567      -47.209324      -13.746756
 H         -18.716751      -48.533890      -12.550575
 H         -17.559818      -49.471989      -14.367583
 H         -16.341518      -48.204201      -14.419355
