20
 generated by VMD
 C         -28.909653      -88.237381      -25.420504
 N         -28.704329      -87.392990      -26.215872
 H         -31.129076      -89.638245      -26.981451
 H         -29.034035      -88.923820      -24.674379
 C         -32.128567      -89.182297      -26.907642
 C         -32.894932      -89.066536      -25.556431
 C         -33.065071      -89.110031      -28.096563
 C         -33.890236      -87.939972      -25.495790
 C         -33.929085      -87.895523      -28.026804
 C         -34.816998      -87.934471      -26.730587
 H         -32.073025      -89.069138      -24.723917
 H         -33.368160      -90.034477      -25.360104
 H         -32.434517      -89.123032      -29.026766
 H         -33.668343      -90.069740      -28.164185
 H         -33.277233      -87.021568      -25.482061
 H         -34.573357      -87.987373      -24.491304
 H         -34.525589      -87.786324      -28.867897
 H         -33.341381      -86.988289      -27.936245
 H         -35.560009      -87.180511      -26.757454
 H         -35.327732      -88.882645      -26.662899
