20
 generated by VMD
 C         -57.786152     -165.453812      -56.468433
 N         -57.713573     -166.599915      -56.332962
 H         -60.675293     -164.967896      -54.160164
 H         -57.825413     -164.395828      -56.651028
 C         -61.502979     -165.232697      -54.788338
 C         -61.791882     -166.679810      -55.229694
 C         -62.239059     -164.017868      -55.520226
 C         -63.340134     -166.816177      -55.382355
 C         -63.716633     -164.338623      -55.764561
 C         -63.866848     -165.731567      -56.342957
 H         -61.411247     -167.166168      -54.282299
 H         -61.197758     -166.761597      -56.165142
 H         -62.193871     -163.114426      -54.925770
 H         -61.608017     -163.778473      -56.396549
 H         -63.788212     -166.727188      -54.351433
 H         -63.692741     -167.817444      -55.772778
 H         -64.341049     -163.656052      -56.523026
 H         -64.235504     -164.369705      -54.789322
 H         -64.943291     -165.985443      -56.547428
 H         -63.342087     -166.010208      -57.288582
