20
 generated by VMD
 C         -58.083714     -166.506882      -56.194439
 N         -58.203442     -167.291092      -55.313786
 H         -60.592999     -165.344955      -55.071785
 H         -57.906708     -165.888321      -57.095974
 C         -61.565411     -165.655106      -55.491329
 C         -61.782677     -166.860306      -56.329132
 C         -62.459034     -164.483643      -55.570374
 C         -63.285614     -167.241287      -56.388714
 C         -63.952679     -164.937851      -55.496799
 C         -64.193481     -166.049850      -56.541737
 H         -61.243919     -167.757355      -55.743965
 H         -61.432255     -166.630417      -57.275654
 H         -62.219383     -163.801254      -54.781906
 H         -62.296116     -163.898941      -56.493019
 H         -63.665588     -167.900665      -55.616726
 H         -63.474670     -167.893188      -57.188873
 H         -64.553810     -164.024551      -55.679241
 H         -64.117493     -165.320892      -54.595741
 H         -65.253578     -166.367615      -56.287365
 H         -64.163414     -165.458267      -57.515564
