20
 generated by VMD
 C         -41.232792     -102.397026      -35.192448
 N         -41.532070     -103.208954      -35.969963
 H         -39.462280     -104.752480      -33.536266
 H         -40.618702     -101.741714      -34.595535
 C         -38.652046     -104.893608      -32.666000
 C         -37.388306     -104.329193      -32.941563
 C         -38.859066     -106.176186      -31.842730
 C         -36.462822     -104.455696      -31.744749
 C         -37.849754     -106.359077      -30.670441
 C         -36.391376     -105.836304      -31.043465
 H         -37.462769     -103.269997      -33.201077
 H         -37.075314     -104.963776      -33.835335
 H         -39.878757     -106.182968      -31.381735
 H         -38.841728     -107.018875      -32.598137
 H         -36.888733     -103.759888      -30.953949
 H         -35.496651     -104.093193      -32.173817
 H         -37.769428     -107.391937      -30.448660
 H         -38.152039     -105.874374      -29.674952
 H         -35.674255     -105.952248      -30.231838
 H         -36.068069     -106.503334      -31.914972
