20
 generated by VMD
 C         -23.033672      -55.350662      -16.704514
 N         -23.490343      -54.790722      -15.871034
 H         -19.267141      -55.425312      -15.544545
 H         -22.629063      -55.559540      -17.787838
 C         -19.213974      -56.247234      -14.874257
 C         -19.966017      -56.144608      -13.552427
 C         -18.376152      -57.399017      -15.135084
 C         -20.691378      -57.453846      -13.241995
 C         -19.091330      -58.686798      -14.737025
 C         -19.691017      -58.673084      -13.284165
 H         -20.570843      -55.187866      -13.419446
 H         -19.229856      -56.071110      -12.684704
 H         -17.951607      -57.354347      -16.139997
 H         -17.501451      -57.136375      -14.530612
 H         -21.412514      -57.666462      -14.057239
 H         -21.193583      -57.428959      -12.287523
 H         -18.319450      -59.469700      -14.750384
 H         -19.816671      -59.003784      -15.442305
 H         -20.204844      -59.624832      -13.038253
 H         -18.882551      -58.472282      -12.597190
