20
 generated by VMD
 C         -78.227196     -203.997559      -69.184021
 N         -79.101280     -204.077774      -69.908318
 H         -75.606537     -202.571121      -67.567871
 H         -77.328407     -203.930466      -68.666466
 C         -75.192574     -202.090393      -68.548119
 C         -75.279343     -200.586914      -68.862946
 C         -73.905663     -202.794907      -68.865990
 C         -74.825012     -200.315369      -70.369499
 C         -72.910202     -202.059418      -69.629646
 C         -73.520760     -201.106247      -70.717812
 H         -74.557808     -200.065109      -68.166847
 H         -76.239677     -200.161087      -68.762672
 H         -73.420853     -203.153046      -67.965210
 H         -74.217667     -203.554962      -69.475243
 H         -74.760597     -199.274536      -70.716431
 H         -75.575897     -200.689529      -71.058975
 H         -72.259918     -202.727493      -70.259293
 H         -72.254677     -201.538544      -68.920761
 H         -72.720963     -200.350052      -71.111351
 H         -73.790848     -201.777344      -71.685707
