20
 generated by VMD
 C         -53.052494     -146.779572      -44.734512
 N         -51.875896     -146.933487      -44.715916
 H         -54.504204     -146.380692      -47.551273
 H         -54.117954     -146.693695      -44.740944
 C         -54.235775     -145.522064      -48.110592
 C         -52.977104     -145.415863      -49.018436
 C         -54.910503     -144.285873      -47.660053
 C         -53.416996     -144.604691      -50.352325
 C         -55.321384     -143.561035      -48.963211
 C         -54.123356     -143.240372      -49.925144
 H         -52.734310     -146.479156      -49.224297
 H         -52.195240     -144.910004      -48.414833
 H         -55.831329     -144.590485      -47.081036
 H         -54.215771     -143.788467      -46.970928
 H         -53.951389     -145.473282      -50.875816
 H         -52.384930     -144.317123      -50.896214
 H         -55.873508     -142.550262      -48.702263
 H         -56.014870     -144.169006      -49.517498
 H         -54.396347     -142.583740      -50.813431
 H         -53.462967     -142.579544      -49.343231
