20
 generated by VMD
 C         -11.774962      -33.664707       -8.579904
 N         -10.841636      -34.078812       -8.957650
 H         -11.540392      -36.816467       -8.022384
 H         -12.012383      -36.316799       -6.378784
 C         -12.292067      -37.007565       -7.233462
 C         -11.992876      -38.388344       -6.569665
 C         -13.705180      -36.847275       -7.715884
 C         -12.966558      -38.619274       -5.393682
 C         -14.716019      -37.242390       -6.633447
 C         -14.417871      -38.526623       -5.958766
 H         -10.979337      -38.505302       -6.204845
 H         -12.271360      -39.116669       -7.344074
 H         -13.875308      -35.843735       -8.100120
 H         -13.907462      -37.598305       -8.506739
 H         -12.803342      -37.860264       -4.679484
 H         -12.798983      -39.645645       -5.012376
 H         -15.717880      -37.196014       -7.138273
 H         -14.737215      -36.393188       -5.910990
 H         -15.167171      -38.691521       -5.188873
 H         -14.508701      -39.388336       -6.697758
