20
 generated by VMD
 C         -21.535662      -52.448097      -11.350750
 N         -21.452019      -52.917774      -10.351995
 H         -19.897345      -50.787407      -13.619150
 H         -21.235249      -51.811245      -12.359109
 C         -18.812754      -50.988716      -13.462684
 C         -18.265516      -51.947575      -14.489985
 C         -18.213997      -50.684517      -12.162848
 C         -16.745277      -52.008884      -14.420628
 C         -16.676619      -50.540001      -12.263743
 C         -16.229784      -51.829182      -12.980072
 H         -18.545094      -51.538158      -15.462611
 H         -18.729624      -52.955795      -14.394744
 H         -18.519381      -49.742241      -11.734555
 H         -18.576542      -51.428936      -11.425703
 H         -16.342041      -51.246357      -15.085544
 H         -16.244024      -52.903469      -14.760098
 H         -16.291410      -50.446533      -11.285007
 H         -16.329208      -49.594879      -12.756871
 H         -15.147280      -51.865009      -13.057159
 H         -16.510433      -52.668766      -12.334493
