20
 generated by VMD
 C         -67.874367     -185.190887      -68.069237
 N         -67.598236     -185.536331      -67.012085
 H         -69.822289     -185.934158      -64.673187
 H         -68.139648     -184.953583      -69.114174
 C         -69.957520     -186.246460      -63.569035
 C         -70.841858     -185.474472      -62.715485
 C         -69.191811     -187.431534      -63.083363
 C         -70.169029     -185.224136      -61.396126
 C         -68.746651     -187.226181      -61.586819
 C         -69.798500     -186.527145      -60.657661
 H         -71.740982     -186.120148      -62.506897
 H         -71.037552     -184.483276      -63.087181
 H         -69.976326     -188.197983      -63.150917
 H         -68.300308     -187.620636      -63.599171
 H         -70.781097     -184.594025      -60.659824
 H         -69.256065     -184.672821      -61.594666
 H         -67.879097     -186.616867      -61.663635
 H         -68.561707     -188.241425      -61.200817
 H         -70.715698     -187.068069      -60.539993
 H         -69.442772     -186.302460      -59.655064
