20
 generated by VMD
 C         -69.300056     -180.306580      -60.407299
 N         -69.270889     -181.485565      -60.404861
 H         -67.373550     -177.233612      -59.549698
 H         -69.294167     -179.241470      -60.335831
 C         -66.340912     -177.297714      -59.893505
 C         -65.987701     -177.253052      -61.376259
 C         -65.275604     -177.108337      -58.826836
 C         -64.887062     -176.311356      -61.655121
 C         -64.303841     -175.998596      -59.143639
 C         -63.669559     -176.097885      -60.669426
 H         -66.936150     -176.832504      -61.818802
 H         -65.811066     -178.284348      -61.734116
 H         -65.752441     -176.939148      -57.803703
 H         -64.704468     -178.019394      -58.735138
 H         -65.397209     -175.346771      -61.689877
 H         -64.562553     -176.228134      -62.619041
 H         -63.398048     -175.914764      -58.503395
 H         -64.807930     -175.029404      -58.945698
 H         -63.068821     -175.179550      -60.954292
 H         -63.082138     -177.022308      -60.796715
