20
 generated by VMD
 C         -20.957907      -52.220810       -9.640904
 N         -21.341578      -52.394909      -10.719531
 H         -19.288258      -50.068638      -11.970630
 H         -20.844316      -52.427189       -8.389589
 C         -18.272036      -50.061714      -12.243093
 C         -17.809263      -51.426575      -12.644910
 C         -17.315615      -48.894958      -12.220300
 C         -16.854900      -51.398117      -13.819240
 C         -16.494123      -48.834858      -13.480981
 C         -15.858324      -50.208107      -13.700770
 H         -18.695520      -52.006817      -12.938148
 H         -17.410973      -52.029549      -11.794628
 H         -17.880735      -47.960144      -12.239840
 H         -16.602537      -48.964832      -11.344146
 H         -17.404072      -51.337261      -14.800131
 H         -16.256338      -52.314945      -13.844790
 H         -15.834040      -47.984245      -13.466377
 H         -17.169516      -48.757919      -14.383581
 H         -15.322756      -50.270760      -14.630820
 H         -15.165451      -50.425026      -12.891947
