20
 generated by VMD
 C          -6.785372      -23.308918        3.290540
 N          -6.713421      -22.702377        2.346181
 H          -7.639017      -22.469675       -0.459074
 H          -8.880237      -22.297258       -1.675121
 C          -7.879227      -22.095314       -1.476558
 C          -6.957922      -22.870939       -2.527017
 C          -7.546002      -20.566256       -1.499349
 C          -7.046345      -22.199663       -3.928527
 C          -7.593812      -19.955399       -2.918599
 C          -6.717507      -20.717924       -3.881231
 H          -7.200309      -23.916859       -2.587767
 H          -5.838916      -22.968611       -2.202320
 H          -8.323992      -19.972824       -0.948039
 H          -6.520144      -20.378334       -1.102583
 H          -8.047476      -22.317886       -4.272926
 H          -6.348362      -22.659271       -4.601302
 H          -7.251984      -18.909492       -2.835954
 H          -8.596161      -20.056358       -3.344856
 H          -6.766088      -20.238523       -4.830928
 H          -5.693095      -20.634211       -3.560762
