20
 generated by VMD
 C         -31.871243      -93.099327      -26.015503
 N         -32.312519      -93.992111      -25.481604
 H         -33.533722      -94.479881      -28.217541
 H         -31.336386      -92.272636      -26.617378
 C         -34.102474      -93.597023      -28.615931
 C         -35.520790      -93.288948      -28.097641
 C         -33.452122      -92.973549      -29.847412
 C         -35.563919      -91.795174      -28.037203
 C         -33.636936      -91.459526      -29.801540
 C         -35.038303      -91.072861      -29.329393
 H         -35.537167      -93.659752      -27.015535
 H         -36.175377      -93.837929      -28.779268
 H         -32.408752      -93.349174      -29.947300
 H         -33.854176      -93.300011      -30.836027
 H         -35.088142      -91.377983      -27.079845
 H         -36.660580      -91.535149      -27.807158
 H         -33.352703      -91.022476      -30.821323
 H         -33.024227      -90.920158      -29.076103
 H         -34.876366      -90.080452      -28.907059
 H         -35.632431      -91.007294      -30.199282
