20
 generated by VMD
 C          -2.812590       -9.453565        0.083382
 N          -1.812884       -9.020373        0.193812
 H          -2.149090      -11.427693        2.845247
 H          -2.885323      -12.346116        4.232909
 C          -2.839210      -12.267525        3.138482
 C          -2.579791      -13.687253        2.633335
 C          -4.201912      -11.735038        2.677919
 C          -3.723891      -14.714495        2.917826
 C          -5.368275      -12.739683        3.039751
 C          -5.055802      -14.126443        2.465492
 H          -1.638379      -14.086286        2.989483
 H          -2.535000      -13.706214        1.555790
 H          -4.393297      -10.817923        3.149374
 H          -4.117947      -11.699672        1.609713
 H          -3.753251      -15.112907        3.926173
 H          -3.551992      -15.536286        2.275374
 H          -6.344138      -12.389894        2.595096
 H          -5.496940      -12.824479        4.169560
 H          -5.892714      -14.777898        2.834899
 H          -5.107844      -14.098811        1.362474
