20
 generated by VMD
 C         -59.575260     -152.403183      -50.963512
 N         -60.451973     -153.122726      -50.839958
 H         -57.227154     -151.885422      -49.240185
 H         -58.654987     -151.836960      -51.185314
 C         -56.192474     -151.568527      -49.446327
 C         -55.070801     -152.550491      -49.801792
 C         -55.661659     -150.137527      -49.419621
 C         -54.096745     -152.135117      -50.976978
 C         -55.035522     -149.668457      -50.781910
 C         -53.878117     -150.586243      -50.985050
 H         -55.329174     -153.599808      -49.864208
 H         -54.380890     -152.426773      -48.882504
 H         -56.541336     -149.501633      -49.223209
 H         -54.982994     -149.975616      -48.579384
 H         -54.614433     -152.396851      -51.942425
 H         -53.182838     -152.706573      -50.889866
 H         -54.755657     -148.524887      -50.820477
 H         -55.671772     -149.788742      -51.637829
 H         -53.329674     -150.455582      -51.947216
 H         -53.070087     -150.356796      -50.334103
