20
 generated by VMD
 C         -20.556700      -64.229973      -16.530090
 N         -19.799982      -63.472740      -16.988173
 H         -23.538408      -63.405067      -17.290592
 H         -21.448950      -64.698189      -15.918919
 C         -23.916086      -64.266907      -17.743069
 C         -24.561554      -64.325806      -19.132555
 C         -24.285345      -65.312912      -16.696760
 C         -24.725771      -65.776291      -19.493383
 C         -24.726906      -66.667412      -17.162256
 C         -25.454084      -66.680084      -18.463646
 H         -23.923330      -63.901596      -19.873493
 H         -25.559326      -63.934780      -19.228619
 H         -23.423470      -65.412628      -15.883413
 H         -25.050634      -64.827881      -16.014380
 H         -23.788765      -66.299294      -19.675383
 H         -25.448446      -65.864616      -20.328302
 H         -25.401432      -67.154030      -16.446735
 H         -23.867449      -67.399902      -17.244064
 H         -25.689377      -67.679100      -18.814135
 H         -26.418619      -66.091003      -18.300520
