20
 generated by VMD
 C         -60.389458     -169.652069      -55.280827
 N         -59.412907     -169.072769      -55.265049
 H         -63.141037     -170.579239      -56.788792
 H         -61.302238     -170.215805      -55.118301
 C         -63.375927     -169.595551      -57.007565
 C         -62.647106     -169.060150      -58.156387
 C         -63.751747     -168.663803      -55.907001
 C         -63.230057     -167.764053      -58.714508
 C         -64.310806     -167.269394      -56.431465
 C         -63.540546     -166.676575      -57.624756
 H         -62.878551     -169.863663      -59.002029
 H         -61.693806     -169.151062      -57.804398
 H         -64.651566     -169.073059      -55.237816
 H         -62.910801     -168.334671      -55.168079
 H         -64.148346     -167.920609      -59.265480
 H         -62.597191     -167.372726      -59.578869
 H         -64.446388     -166.630188      -55.537666
 H         -65.428162     -167.595551      -56.796547
 H         -64.131134     -165.838730      -58.077911
 H         -62.632210     -166.095764      -57.264866
