20
 generated by VMD
 C         -47.738949     -136.563538      -45.942757
 N         -46.911537     -136.052063      -46.523869
 H         -51.392342     -135.272476      -45.757378
 H         -48.654736     -137.050766      -45.566486
 C         -51.610794     -136.248138      -45.319420
 C         -52.179432     -137.423538      -46.119553
 C         -51.841869     -136.185181      -43.889755
 C         -51.952267     -138.805557      -45.409340
 C         -51.598804     -137.667786      -43.153713
 C         -52.357452     -138.726334      -43.871216
 H         -51.717964     -137.517471      -47.052517
 H         -53.316448     -137.288803      -46.255974
 H         -51.068432     -135.528244      -43.388054
 H         -52.880238     -135.836914      -43.672066
 H         -50.890404     -139.077728      -45.524982
 H         -52.466427     -139.564682      -46.101192
 H         -51.945206     -137.588715      -42.157333
 H         -50.454838     -137.845581      -43.057018
 H         -51.897835     -139.643692      -43.462708
 H         -53.343739     -138.419510      -43.739891
