20
 generated by VMD
 C         -11.959460      -25.960180       -0.086550
 N         -12.945509      -26.206383       -0.544468
 H          -9.792103      -26.731565       -3.110835
 H          -9.552124      -25.763533       -4.575243
 C          -9.034167      -26.179441       -3.710329
 C          -8.002834      -27.284798       -4.125451
 C          -8.336069      -25.134155       -2.804548
 C          -6.769767      -26.627121       -4.735555
 C          -7.137835      -24.472078       -3.588452
 C          -6.127995      -25.578730       -3.815854
 H          -8.424837      -28.020618       -4.945687
 H          -7.861649      -27.988558       -3.304542
 H          -9.112492      -24.360786       -2.597389
 H          -8.053637      -25.442644       -1.795729
 H          -6.860668      -26.250669       -5.761375
 H          -6.027159      -27.418575       -4.862599
 H          -6.678483      -23.749670       -2.916747
 H          -7.447646      -23.976727       -4.548446
 H          -5.240728      -25.240351       -4.368443
 H          -5.813258      -26.097837       -2.922091
