20
 generated by VMD
 C         -11.435802      -33.353779       -8.594707
 N         -10.548040      -33.765774       -9.115952
 H         -12.568500      -34.420708       -7.106043
 H         -12.977517      -34.802696       -5.392891
 C         -12.776657      -35.278500       -6.366784
 C         -11.607460      -36.272480       -6.395313
 C         -14.093302      -35.952236       -6.739500
 C         -11.927902      -37.466312       -5.418334
 C         -14.408081      -37.163784       -5.889389
 C         -13.207304      -38.104183       -5.870668
 H         -10.717707      -35.748001       -6.096126
 H         -11.376200      -36.641056       -7.390853
 H         -14.949783      -35.238956       -6.719684
 H         -14.086780      -36.317177       -7.736516
 H         -11.929690      -37.016861       -4.415188
 H         -11.098714      -38.126339       -5.343277
 H         -15.293642      -37.705425       -6.339831
 H         -14.700660      -36.877254       -4.931786
 H         -13.432242      -39.016273       -5.307649
 H         -13.190715      -38.404381       -6.940341
