20
 generated by VMD
 C         -59.378857     -168.569138      -55.739964
 N         -58.926502     -168.800140      -54.684757
 H         -62.677402     -169.631699      -55.910683
 H         -59.875847     -168.192108      -56.623608
 C         -62.811195     -168.641281      -56.413658
 C         -62.716877     -168.501495      -57.911613
 C         -62.991440     -167.467880      -55.534317
 C         -63.891632     -167.637512      -58.400166
 C         -64.113319     -166.587875      -56.088684
 C         -63.824005     -166.331650      -57.576836
 H         -62.884392     -169.614014      -58.325642
 H         -61.807640     -168.146820      -58.154285
 H         -63.301872     -167.737274      -54.572586
 H         -62.186565     -166.775452      -55.352062
 H         -64.854317     -168.198959      -58.353661
 H         -63.652874     -167.435822      -59.449818
 H         -64.018120     -165.695618      -55.451736
 H         -65.082680     -167.082016      -56.089306
 H         -64.633949     -165.728073      -58.079960
 H         -62.858688     -165.777161      -57.751740
