20
 generated by VMD
 C         -31.342039      -75.595093      -23.590935
 N         -30.945562      -76.097015      -24.606821
 H         -29.543037      -78.341118      -22.079231
 H         -32.008366      -75.218933      -22.946634
 C         -28.519270      -78.165100      -21.948589
 C         -27.632532      -78.380157      -23.134438
 C         -27.907167      -78.098343      -20.570606
 C         -26.364544      -77.430550      -23.006330
 C         -26.770178      -77.072372      -20.528311
 C         -25.799072      -77.186790      -21.613338
 H         -28.254730      -77.958977      -24.082125
 H         -27.371113      -79.443291      -23.232737
 H         -28.752169      -77.925995      -19.847820
 H         -27.456902      -79.037048      -20.430790
 H         -26.688726      -76.437149      -23.337856
 H         -25.482718      -77.812653      -23.619320
 H         -26.303770      -77.023598      -19.601114
 H         -27.189383      -76.043091      -20.569443
 H         -25.096376      -76.368820      -21.719387
 H         -25.189831      -78.037903      -21.398066
