20
 generated by VMD
 C          -4.593477      -21.002792        2.306674
 N          -5.097002      -20.089869        2.708222
 H          -5.033679      -19.017456       -0.398587
 H          -5.889078      -20.559715       -0.201570
 C          -5.886559      -19.633139       -0.773139
 C          -5.614454      -19.832146       -2.241648
 C          -7.196950      -18.905548       -0.623187
 C          -6.695670      -20.639597       -2.944599
 C          -8.340333      -19.711304       -1.169306
 C          -8.118670      -20.109756       -2.657498
 H          -4.605026      -20.363499       -2.334525
 H          -5.564967      -18.807295       -2.689399
 H          -7.395483      -18.668898        0.400742
 H          -7.164727      -18.022015       -1.254664
 H          -6.593044      -21.612345       -2.440043
 H          -6.574557      -20.761015       -4.001571
 H          -9.322537      -19.255760       -1.061147
 H          -8.430061      -20.685648       -0.627976
 H          -8.906167      -20.902225       -2.841474
 H          -8.307488      -19.222286       -3.320244
