20
 generated by VMD
 C         -44.808270     -122.437798      -35.600712
 N         -45.033295     -123.346245      -34.875084
 H         -45.226112     -122.556267      -38.709419
 H         -44.885509     -121.666176      -36.306591
 C         -44.923557     -121.759422      -39.396652
 C         -43.492081     -121.417427      -39.662033
 C         -46.071770     -120.810020      -39.646870
 C         -43.357483     -120.345901      -40.760101
 C         -45.711052     -119.725800      -40.714977
 C         -44.270317     -119.210701      -40.506577
 H         -42.809532     -122.230911      -39.873108
 H         -43.154427     -120.950157      -38.624714
 H         -46.857567     -121.556007      -39.909142
 H         -46.401344     -120.302467      -38.761513
 H         -43.458374     -120.772217      -41.809174
 H         -42.382309     -119.973885      -40.947903
 H         -46.428406     -118.940399      -40.469799
 H         -45.976074     -120.039337      -41.650967
 H         -44.084927     -118.445732      -41.317295
 H         -44.097279     -118.705742      -39.509113
