20
 generated by VMD
 C         -68.476990     -185.387939      -67.343964
 N         -67.635742     -185.206589      -66.546371
 H         -69.240250     -187.096970      -64.890076
 H         -69.239388     -185.614059      -68.038940
 C         -69.539391     -186.931671      -63.884960
 C         -70.286011     -185.745911      -63.443062
 C         -69.657539     -188.079071      -62.979080
 C         -69.780518     -185.367157      -62.080021
 C         -69.366936     -187.727325      -61.479794
 C         -70.131332     -186.472672      -61.045597
 H         -71.417183     -185.880920      -63.459896
 H         -70.148903     -184.792206      -64.082146
 H         -70.697754     -188.528641      -63.194801
 H         -69.024422     -188.875961      -63.445068
 H         -70.206619     -184.391678      -61.751591
 H         -68.683800     -185.159210      -62.196461
 H         -68.318710     -187.628723      -61.436268
 H         -69.597473     -188.558777      -60.811634
 H         -71.304413     -186.368454      -61.261551
 H         -70.067772     -186.218384      -59.959782
