20
 generated by VMD
 C         -20.487209      -56.427475      -16.831217
 N         -21.396988      -55.926109      -17.291735
 H         -22.240870      -58.656101      -16.776409
 H         -19.639486      -56.890579      -16.108513
 C         -22.135170      -59.367222      -15.985042
 C         -22.330925      -59.234482      -14.523752
 C         -21.696049      -60.604694      -16.544050
 C         -21.099350      -59.739902      -13.756726
 C         -20.802418      -61.431381      -15.656852
 C         -20.784666      -61.157890      -14.104538
 H         -23.204464      -59.739777      -14.188100
 H         -22.592384      -58.174110      -14.265509
 H         -22.571501      -61.183708      -16.957489
 H         -21.119814      -60.367859      -17.493958
 H         -21.162340      -59.630726      -12.681784
 H         -20.241426      -59.197033      -14.232064
 H         -19.743235      -61.388424      -16.082857
 H         -21.007366      -62.514748      -15.793221
 H         -21.592159      -61.656734      -13.611024
 H         -19.813694      -61.448338      -13.626391
