20
 generated by VMD
 C         -41.228977     -119.261063      -34.695011
 N         -40.385628     -119.335938      -35.454865
 H         -43.598579     -117.954201      -36.271202
 H         -41.960888     -119.444511      -33.959599
 C         -43.852196     -117.639633      -37.294983
 C         -43.039253     -117.827942      -38.519321
 C         -45.204918     -117.052490      -37.596657
 C         -43.792812     -118.492752      -39.657959
 C         -45.866573     -117.648705      -38.825996
 C         -44.993420     -117.675056      -40.085560
 H         -42.170433     -118.479317      -38.438763
 H         -42.860134     -116.753204      -38.835529
 H         -45.771736     -117.128929      -36.599442
 H         -45.070282     -116.006905      -37.777309
 H         -44.154861     -119.488876      -39.355633
 H         -43.303646     -118.605621      -40.681198
 H         -46.800945     -117.095749      -39.032631
 H         -46.287724     -118.667931      -38.518719
 H         -45.522015     -118.135658      -40.983414
 H         -44.719677     -116.741936      -40.421085
