20
 generated by VMD
 C         -38.973427      -98.839127      -27.824192
 N         -38.505798      -99.881859      -27.558474
 H         -37.296707      -98.486412      -30.515892
 H         -39.226528      -97.757591      -28.107534
 C         -36.424850      -97.811264      -30.850668
 C         -35.588375      -98.292618      -32.064697
 C         -35.675243      -97.302658      -29.598415
 C         -34.473152      -97.266502      -32.290386
 C         -34.393959      -96.473618      -29.968653
 C         -33.635315      -97.164093      -30.955961
 H         -36.328583      -98.477867      -32.785454
 H         -35.122669      -99.260811      -31.854734
 H         -36.351009      -96.732773      -28.971725
 H         -35.381477      -98.171799      -28.981140
 H         -34.805149      -96.296165      -32.635601
 H         -33.846210      -97.807526      -32.934090
 H         -33.760284      -96.375237      -29.043371
 H         -34.597572      -95.469765      -30.311407
 H         -32.661118      -96.760315      -31.368883
 H         -33.391186      -98.113464      -30.453552
