20
 generated by VMD
 C         -58.150242     -168.391388      -54.992920
 N         -57.050400     -168.581192      -54.918205
 H         -61.378532     -167.514801      -55.532219
 H         -59.195908     -168.228699      -55.175961
 C         -62.292740     -167.154282      -56.071697
 C         -62.656731     -167.703796      -57.463699
 C         -63.001434     -165.929504      -55.615532
 C         -64.162697     -167.502029      -57.847160
 C         -64.548172     -165.849380      -55.986252
 C         -64.655968     -166.129547      -57.435734
 H         -62.425537     -168.742981      -57.671436
 H         -62.191631     -167.002991      -58.300617
 H         -62.812778     -165.761581      -54.562820
 H         -62.498650     -165.061111      -56.006523
 H         -64.819702     -168.173904      -57.314774
 H         -64.413170     -167.554016      -58.893963
 H         -64.741173     -164.820541      -55.677917
 H         -65.107399     -166.632248      -55.300312
 H         -65.765022     -166.161377      -57.711571
 H         -64.235992     -165.392990      -58.175976
