20
 generated by VMD
 C         -66.679230     -190.481247      -66.522629
 N         -67.828232     -190.310715      -66.297615
 H         -70.564880     -190.675781      -66.462433
 H         -65.702095     -190.769577      -66.944450
 C         -71.259956     -190.360535      -65.689644
 C         -72.299347     -191.282150      -65.191368
 C         -70.610138     -189.387161      -64.827354
 C         -73.296524     -190.307205      -64.440857
 C         -71.536362     -188.709915      -63.789471
 C         -72.563080     -189.783127      -63.184933
 H         -71.828712     -191.963058      -64.458084
 H         -72.869888     -191.930130      -65.963432
 H         -69.903915     -189.916321      -64.198868
 H         -70.067520     -188.540146      -65.469391
 H         -74.218407     -190.794586      -64.113678
 H         -73.447838     -189.410233      -65.122360
 H         -72.099136     -187.920303      -64.353516
 H         -70.951279     -188.233551      -63.044762
 H         -72.161461     -190.556686      -62.559196
 H         -73.380699     -189.266693      -62.507072
