20
 generated by VMD
 C         -44.450359     -122.182594      -36.012672
 N         -43.944103     -121.122574      -35.898357
 H         -45.005512     -122.739052      -39.440525
 H         -45.051327     -123.015518      -36.127228
 C         -44.863201     -121.628731      -39.530991
 C         -43.485008     -121.140526      -39.452751
 C         -45.963379     -120.676750      -39.179321
 C         -43.279934     -119.842819      -40.103638
 C         -45.692348     -119.383896      -39.853966
 C         -44.340385     -118.708511      -39.618412
 H         -42.912331     -121.804062      -39.990185
 H         -43.113796     -121.254997      -38.450657
 H         -47.045643     -120.934570      -39.344151
 H         -45.844788     -120.560738      -38.047329
 H         -43.355804     -119.832184      -41.157406
 H         -42.246384     -119.454048      -39.948658
 H         -46.630169     -118.667656      -39.623886
 H         -45.711288     -119.398911      -40.955597
 H         -44.175339     -117.705269      -40.155357
 H         -44.306534     -118.564034      -38.498932
