20
 generated by VMD
 C         -68.909439     -188.156219      -67.650780
 N         -68.052719     -187.373260      -67.776123
 H         -68.246498     -187.329529      -63.898998
 H         -69.737999     -188.878525      -67.469322
 C         -69.195198     -187.333160      -63.330914
 C         -69.205391     -188.297699      -62.208900
 C         -70.365242     -186.666870      -63.857361
 C         -70.354355     -189.193649      -62.221340
 C         -71.626755     -187.565826      -63.799419
 C         -71.714241     -188.421585      -62.513985
 H         -69.089752     -187.726974      -61.189545
 H         -68.189514     -188.848694      -62.361252
 H         -70.593941     -185.757065      -63.266396
 H         -70.228371     -186.280273      -64.803200
 H         -70.479088     -189.777481      -61.302803
 H         -70.230293     -189.935577      -63.048302
 H         -71.587105     -188.239182      -64.726562
 H         -72.533539     -186.952042      -64.075890
 H         -72.191849     -187.821991      -61.753418
 H         -72.553497     -189.191956      -62.596909
