20
 generated by VMD
 C         -40.631142     -119.131622      -35.364784
 N         -39.642387     -118.558228      -35.108253
 H         -43.870186     -117.549484      -36.093189
 H         -41.618305     -119.302429      -35.626614
 C         -44.004734     -117.032578      -37.057201
 C         -43.085518     -117.480225      -38.115562
 C         -45.278164     -116.422371      -37.583393
 C         -43.772621     -118.331184      -39.151993
 C         -45.899860     -117.243652      -38.694424
 C         -44.873741     -117.597427      -39.830902
 H         -42.207359     -118.053398      -37.914543
 H         -42.629734     -116.565102      -38.563530
 H         -45.891415     -116.199722      -36.686516
 H         -45.004242     -115.491982      -37.950916
 H         -44.050858     -119.266190      -38.725151
 H         -43.233776     -118.719566      -40.027134
 H         -46.686871     -116.654175      -39.216770
 H         -46.391914     -118.062027      -38.280987
 H         -45.410458     -118.177063      -40.560574
 H         -44.603405     -116.777344      -40.410049
