20
 generated by VMD
 C          -7.324087      -23.442194        1.734373
 N          -7.469114      -22.675665        2.514775
 H          -8.891548      -23.558975       -1.430439
 H          -9.370278      -22.581738       -2.754103
 C          -8.528798      -22.832920       -2.177525
 C          -7.678019      -23.535500       -3.143006
 C          -7.794204      -21.708670       -1.537319
 C          -6.992025      -22.588730       -4.087473
 C          -7.122936      -20.744995       -2.475134
 C          -6.139852      -21.537167       -3.394701
 H          -8.301801      -24.314140       -3.633657
 H          -6.875839      -24.192074       -2.748398
 H          -8.493835      -21.057541       -0.941928
 H          -7.040058      -22.196499       -0.898743
 H          -7.683722      -22.108080       -4.697130
 H          -6.386685      -23.211138       -4.726814
 H          -6.532232      -20.050554       -1.850121
 H          -7.892264      -20.212057       -3.068809
 H          -5.800780      -20.814024       -4.159211
 H          -5.259560      -21.935101       -2.812433
