20
 generated by VMD
 C         -69.057755     -193.069443      -66.540955
 N         -67.952881     -193.475540      -66.676468
 H         -69.905098     -190.198624      -65.588531
 H         -69.968224     -192.700928      -66.048515
 C         -70.888969     -190.591553      -65.361832
 C         -71.788086     -190.765762      -66.540382
 C         -71.508865     -190.886490      -64.006195
 C         -72.802498     -191.838989      -66.348221
 C         -73.041344     -190.856689      -64.036804
 C         -73.670433     -191.713135      -65.106628
 H         -71.184715     -191.007446      -67.348793
 H         -72.230278     -189.782593      -66.846626
 H         -71.259979     -191.846939      -63.708393
 H         -71.006325     -190.246841      -63.236038
 H         -72.346405     -192.841934      -66.325928
 H         -73.491486     -191.826233      -67.220520
 H         -73.216202     -189.781693      -64.222878
 H         -73.431458     -190.990784      -63.082275
 H         -73.858253     -192.786377      -64.610710
 H         -74.613525     -191.341644      -65.287506
