20
 generated by VMD
 C          -5.154589      -21.066648        1.647646
 N          -5.407559      -20.556131        2.611457
 H          -5.071626      -18.572390       -0.806883
 H          -5.456319      -20.169283       -0.059449
 C          -5.780017      -19.410915       -0.855084
 C          -5.541021      -20.088615       -2.236959
 C          -7.193890      -18.901777       -0.656354
 C          -6.672591      -21.015512       -2.664956
 C          -8.297264      -19.794928       -1.160545
 C          -8.021651      -20.257889       -2.609932
 H          -4.619222      -20.627535       -2.203701
 H          -5.460573      -19.213379       -2.986264
 H          -7.327029      -18.837238        0.412408
 H          -7.227815      -18.000853       -1.253147
 H          -6.741909      -21.846544       -1.920681
 H          -6.530821      -21.492847       -3.690559
 H          -9.264692      -19.249029       -1.132697
 H          -8.416813      -20.693663       -0.529882
 H          -8.832962      -20.969118       -2.820118
 H          -8.028378      -19.413124       -3.331728
