20
 generated by VMD
 C         -23.028585      -53.494038      -13.859807
 N         -23.747608      -52.873348      -14.584058
 H         -20.472515      -55.067478      -14.933272
 H         -22.295179      -53.918091      -13.002347
 C         -19.670942      -55.086586      -14.076346
 C         -19.192318      -53.722698      -13.730161
 C         -18.732008      -56.169476      -14.406619
 C         -17.948969      -53.797840      -12.856549
 C         -17.452503      -56.234093      -13.550862
 C         -16.933098      -54.855816      -13.216576
 H         -19.974907      -53.141144      -13.306558
 H         -18.817114      -53.279652      -14.604269
 H         -19.206211      -57.132000      -14.361882
 H         -18.437803      -56.021408      -15.431567
 H         -18.207815      -53.890453      -11.807114
 H         -17.590773      -52.757744      -12.909261
 H         -16.750767      -56.884411      -14.115074
 H         -17.682409      -56.756069      -12.636479
 H         -16.207527      -54.934605      -12.373189
 H         -16.225006      -54.522457      -14.069019
