20
 generated by VMD
 C         -60.026508     -152.686752      -51.001038
 N         -60.946156     -152.651047      -51.789059
 H         -56.742668     -152.784103      -48.765194
 H         -59.114204     -152.780762      -50.392548
 C         -56.068062     -152.393555      -49.539291
 C         -54.635967     -152.875641      -49.550518
 C         -56.306870     -150.986588      -49.885040
 C         -53.778603     -152.409698      -50.728661
 C         -55.456051     -150.593124      -51.104706
 C         -53.997379     -150.971756      -51.008446
 H         -54.610802     -154.024536      -49.386055
 H         -54.218830     -152.482803      -48.581116
 H         -57.340473     -151.090652      -50.269047
 H         -56.220917     -150.194962      -49.094810
 H         -53.896690     -152.998322      -51.649971
 H         -52.673973     -152.605743      -50.485638
 H         -55.640549     -149.525223      -51.000896
 H         -55.892712     -151.038055      -51.971722
 H         -53.404121     -150.495285      -51.817913
 H         -53.638393     -150.363312      -50.217411
