20
 generated by VMD
 C         -12.397023      -27.591633       -4.617561
 N         -13.127741      -28.080097       -5.288387
 H         -10.968047      -30.517817       -2.744756
 H         -10.959729      -28.995836       -3.782926
 C         -10.306697      -29.837160       -3.360371
 C          -9.604095      -30.525188       -4.552711
 C          -9.315391      -29.167519       -2.473828
 C          -8.717280      -29.492687       -5.313696
 C          -8.371477      -28.237656       -3.171432
 C          -7.655562      -28.884794       -4.400016
 H         -10.296759      -31.142590       -5.138601
 H          -8.888333      -31.324987       -4.190794
 H          -9.819962      -28.675156       -1.648440
 H          -8.714689      -29.976776       -1.994396
 H          -9.299419      -28.683727       -5.808960
 H          -8.223516      -29.947954       -6.174639
 H          -7.645993      -27.784292       -2.497084
 H          -8.906181      -27.322544       -3.567264
 H          -7.138120      -28.127142       -4.985411
 H          -6.975654      -29.662121       -4.028139
