20
 generated by VMD
 C         -58.262661     -166.880356      -55.962105
 N         -57.818005     -167.570480      -55.084354
 H         -60.932632     -165.925110      -54.901337
 H         -58.560078     -166.380417      -56.864441
 C         -61.658054     -165.853622      -55.693855
 C         -61.963547     -166.794937      -56.750881
 C         -62.579254     -164.676300      -55.613319
 C         -63.363564     -167.337585      -56.621777
 C         -64.026184     -165.053284      -55.552624
 C         -64.315804     -166.137665      -56.540234
 H         -61.314289     -167.760605      -56.726013
 H         -61.813374     -166.537598      -57.725060
 H         -62.327820     -164.189774      -54.708199
 H         -62.422504     -163.961288      -56.427708
 H         -63.358299     -167.880112      -55.665707
 H         -63.573677     -168.020111      -57.428642
 H         -64.663795     -164.066605      -55.691288
 H         -64.291054     -165.374130      -54.403622
 H         -65.360527     -166.557205      -56.553753
 H         -64.267044     -165.560791      -57.521011
