20
 generated by VMD
 C         -47.944038     -134.326263      -47.425587
 N         -48.030525     -133.645416      -48.349644
 H         -49.693245     -134.236755      -44.080162
 H         -47.759762     -134.940277      -46.576519
 C         -50.255135     -135.131790      -43.839882
 C         -50.451649     -136.292450      -44.758266
 C         -51.178345     -134.909241      -42.693241
 C         -50.705906     -137.544144      -43.970943
 C         -51.372971     -136.239822      -41.913342
 C         -51.742977     -137.397141      -42.827164
 H         -49.656918     -136.278336      -45.441250
 H         -51.383392     -135.988235      -45.330139
 H         -50.624355     -134.296173      -42.026512
 H         -52.042007     -134.388931      -43.040436
 H         -49.698055     -137.739502      -43.554344
 H         -51.013081     -138.464417      -44.469280
 H         -52.088173     -136.072723      -41.067917
 H         -50.386784     -136.660492      -41.435394
 H         -51.734070     -138.423904      -42.196136
 H         -52.707546     -137.093445      -43.242043
