20
 generated by VMD
 C         -40.705601     -100.071022      -29.711697
 N         -40.313625     -100.220490      -28.629316
 H         -37.370831     -100.162346      -30.577633
 H         -40.914642      -99.815613      -30.782660
 C         -36.446232      -99.521355      -30.791967
 C         -35.997673      -99.425308      -32.303436
 C         -35.397293      -99.223648      -29.697269
 C         -34.887089      -98.361549      -32.476730
 C         -34.233757      -98.274124      -29.943132
 C         -33.679649      -98.327263      -31.432541
 H         -36.831081      -98.998962      -32.953716
 H         -35.753235     -100.409805      -32.619175
 H         -35.963852      -99.032188      -28.743179
 H         -34.886929     -100.127472      -29.612906
 H         -35.147404      -97.319748      -32.517925
 H         -34.345818      -98.695297      -33.401577
 H         -33.411602      -98.487740      -29.184481
 H         -34.527157      -97.295853      -29.764441
 H         -33.154228      -97.405815      -31.570601
 H         -32.891415      -99.137245      -31.460016
