20
 generated by VMD
 C         -38.006149     -109.645699      -36.452747
 N         -37.426945     -108.873131      -35.837536
 H         -41.074631     -112.045670      -37.345619
 H         -38.422798     -110.373367      -37.203606
 C         -41.553112     -112.249817      -36.383041
 C         -42.298244     -113.466454      -36.424244
 C         -41.683453     -111.302216      -35.210258
 C         -42.751637     -114.051804      -35.075527
 C         -42.308071     -111.768723      -33.874752
 C         -43.278915     -112.898643      -34.125145
 H         -41.594536     -114.174545      -36.818642
 H         -43.195423     -113.415443      -37.049244
 H         -40.644615     -111.028168      -35.047436
 H         -42.175602     -110.447495      -35.662586
 H         -41.960224     -114.686096      -34.537476
 H         -43.528423     -114.714417      -35.297428
 H         -42.787838     -110.925911      -33.299366
 H         -41.397148     -112.077492      -33.208633
 H         -43.650036     -113.312088      -33.137188
 H         -44.134594     -112.521187      -34.534870
