20
 generated by VMD
 C         -19.696810      -60.869793      -17.170101
 N         -19.663599      -59.831005      -17.714325
 H         -23.490316      -60.295353      -16.567926
 H         -20.040022      -61.892590      -16.732075
 C         -23.346573      -61.336468      -16.520344
 C         -23.312489      -62.038761      -17.849516
 C         -23.279840      -62.009506      -15.188245
 C         -23.074068      -63.608273      -17.620762
 C         -23.232983      -63.480942      -15.093929
 C         -23.748495      -64.171623      -16.322432
 H         -22.602667      -61.590275      -18.561453
 H         -24.324585      -62.061653      -18.212555
 H         -22.313957      -61.572727      -14.767247
 H         -24.153278      -61.707668      -14.630536
 H         -21.951580      -63.701511      -17.535000
 H         -23.423653      -64.148148      -18.545628
 H         -23.934551      -63.845371      -14.367771
 H         -22.249491      -63.824116      -14.846615
 H         -23.431574      -65.188995      -16.093172
 H         -24.796000      -64.095764      -16.412132
