20
 generated by VMD
 C         -40.701168     -103.936996      -37.058365
 N         -40.216927     -104.835632      -36.525730
 H         -40.280663     -106.338814      -33.900623
 H         -41.114029     -103.285179      -37.836082
 C         -39.599533     -107.150093      -33.586239
 C         -38.395844     -106.425514      -33.102966
 C         -39.862438     -108.616158      -33.426754
 C         -38.085754     -106.912987      -31.704229
 C         -39.703617     -108.954353      -31.893154
 C         -38.309898     -108.468620      -31.497795
 H         -38.511318     -105.331917      -33.115131
 H         -37.637714     -106.528252      -33.827869
 H         -40.874767     -109.031380      -33.899967
 H         -39.044746     -109.057007      -34.034325
 H         -38.806351     -106.511055      -31.057854
 H         -37.087471     -106.684235      -31.363455
 H         -39.907036     -110.066093      -31.734632
 H         -40.486183     -108.520538      -31.276041
 H         -38.309948     -108.595276      -30.428905
 H         -37.550201     -109.216042      -31.921566
