20
 generated by VMD
 C         -47.543301     -138.022202      -46.047554
 N         -47.279423     -137.386292      -47.037537
 H         -50.426136     -137.346909      -44.221859
 H         -47.764359     -138.376602      -45.021240
 C         -51.321499     -137.592651      -44.808876
 C         -51.315731     -138.396393      -46.051247
 C         -52.546017     -137.439316      -43.942074
 C         -52.277325     -139.610718      -46.052258
 C         -53.465912     -138.729599      -44.051506
 C         -53.674137     -139.195999      -45.460770
 H         -50.294559     -138.756989      -46.292160
 H         -51.586651     -137.909363      -47.043568
 H         -52.470634     -137.006302      -42.949146
 H         -53.101147     -136.635162      -44.490002
 H         -51.832848     -140.523575      -45.469719
 H         -52.265030     -140.045441      -47.067329
 H         -54.371662     -138.571472      -43.571903
 H         -53.090408     -139.617706      -43.445419
 H         -54.336994     -140.099869      -45.530510
 H         -54.191750     -138.321335      -46.126904
