20
 generated by VMD
 C         -49.475452     -133.074066      -46.893215
 N         -48.521606     -132.886795      -47.407169
 H         -48.208916     -134.560944      -43.646564
 H         -50.339043     -133.056946      -46.233242
 C         -49.243790     -134.871506      -43.925533
 C         -49.573521     -136.245087      -44.334854
 C         -50.257401     -134.035172      -43.168167
 C         -50.132076     -136.986496      -43.108910
 C         -50.772099     -134.762177      -42.044212
 C         -51.275887     -136.234222      -42.458424
 H         -48.630527     -136.662628      -44.637756
 H         -50.168289     -136.203995      -45.230145
 H         -49.888874     -133.068481      -42.990654
 H         -51.089081     -133.899185      -43.878883
 H         -49.342690     -137.211685      -42.338852
 H         -50.430744     -137.905289      -43.547241
 H         -51.730335     -134.414322      -41.558727
 H         -49.967712     -134.875351      -41.252804
 H         -51.825600     -136.775742      -41.751122
 H         -52.095287     -136.174026      -43.285835
