20
 generated by VMD
 C         -41.592274     -119.522102      -34.417549
 N         -41.363277     -120.095093      -35.375935
 H         -43.316380     -118.858963      -36.795727
 H         -41.633457     -118.800362      -33.652298
 C         -43.772392     -118.239563      -37.630417
 C         -42.982246     -118.243416      -38.845470
 C         -45.126984     -117.565361      -37.702732
 C         -43.782875     -118.580803      -40.118206
 C         -45.890625     -118.069878      -38.937077
 C         -45.150364     -117.837555      -40.261520
 H         -42.180607     -118.993401      -38.830166
 H         -42.426003     -117.286842      -39.179050
 H         -45.636181     -117.900352      -36.814445
 H         -45.087479     -116.433914      -37.664360
 H         -44.232346     -119.596619      -40.060741
 H         -43.222660     -118.576950      -41.096481
 H         -46.910240     -117.574661      -39.051758
 H         -46.060078     -119.131744      -38.976337
 H         -45.671272     -118.356247      -41.019520
 H         -44.979671     -116.842979      -40.599155
