20
 generated by VMD
 C         -21.830254      -52.322304      -11.463246
 N         -21.697233      -52.868202      -10.411019
 H         -19.906372      -51.528751      -14.092172
 H         -21.578144      -51.764385      -12.246611
 C         -18.926281      -51.739090      -13.685844
 C         -17.961058      -51.746262      -14.856349
 C         -18.505905      -51.580616      -12.241913
 C         -16.510073      -51.979034      -14.466784
 C         -17.079258      -51.161598      -12.170205
 C         -16.301853      -52.212345      -13.017549
 H         -18.046724      -50.904629      -15.530131
 H         -18.160112      -52.702412      -15.449771
 H         -19.067078      -50.811096      -11.728774
 H         -18.719641      -52.485115      -11.723096
 H         -15.885663      -51.122150      -14.743202
 H         -16.042883      -52.809589      -15.001065
 H         -16.753851      -51.148399      -11.142276
 H         -16.889685      -50.077282      -12.578205
 H         -15.205014      -52.185871      -12.840505
 H         -16.636848      -53.218807      -12.678741
