20
 generated by VMD
 C         -47.823803     -125.164200      -38.979328
 N         -47.526562     -126.217896      -38.567459
 H         -45.493507     -123.126053      -37.885632
 H         -48.122551     -124.341766      -39.591827
 C         -45.485161     -123.135071      -38.924274
 C         -44.362331     -124.043419      -39.369919
 C         -45.572540     -121.864258      -39.663651
 C         -44.516182     -124.441528      -40.829632
 C         -45.857697     -122.279755      -41.207096
 C         -44.766212     -123.202179      -41.741955
 H         -44.221203     -124.893379      -38.615086
 H         -43.405926     -123.553711      -39.363770
 H         -46.380566     -121.346634      -39.158382
 H         -44.648453     -121.303001      -39.583504
 H         -45.474701     -124.981377      -40.891445
 H         -43.788242     -125.083740      -41.319218
 H         -45.840218     -121.432648      -41.907726
 H         -46.880653     -122.720306      -41.276054
 H         -44.960117     -123.483032      -42.780472
 H         -43.835056     -122.599281      -41.789303
