20
 generated by VMD
 C         -67.459045     -191.921692      -67.398300
 N         -67.416206     -192.750824      -66.589241
 H         -70.026375     -189.815887      -65.571800
 H         -67.285805     -191.195236      -68.159012
 C         -71.052971     -189.894409      -65.267380
 C         -71.759018     -190.942932      -66.032043
 C         -71.498039     -189.298599      -63.993099
 C         -73.099144     -191.500946      -65.484436
 C         -72.948448     -189.661423      -63.660934
 C         -73.205589     -191.135330      -63.924290
 H         -71.028824     -191.741776      -66.079010
 H         -71.915825     -190.557068      -67.079468
 H         -70.848663     -189.479004      -63.112816
 H         -71.440544     -188.155441      -64.127167
 H         -73.131889     -192.561523      -65.599106
 H         -73.952538     -190.947784      -65.951149
 H         -73.688309     -189.098877      -64.299149
 H         -73.109825     -189.526276      -62.627533
 H         -72.679146     -191.665359      -63.209122
 H         -74.180313     -191.661072      -63.570877
