20
 generated by VMD
 C         -45.650509     -123.637619      -35.502426
 N         -46.227879     -124.609703      -35.404121
 H         -44.750198     -122.118469      -38.057983
 H         -45.216164     -122.666557      -35.554787
 C         -44.803185     -121.658142      -39.098244
 C         -43.396065     -121.340919      -39.628559
 C         -45.775707     -120.703285      -39.466141
 C         -43.422306     -121.214676      -41.188423
 C         -45.872913     -120.531982      -41.024284
 C         -44.428020     -120.112381      -41.604500
 H         -42.678734     -122.143059      -39.295792
 H         -42.914860     -120.424500      -39.257126
 H         -46.634579     -121.133133      -39.008274
 H         -45.478222     -119.697807      -39.023441
 H         -43.626476     -122.193932      -41.625668
 H         -42.390381     -120.988800      -41.688091
 H         -46.538677     -119.614548      -41.373764
 H         -46.277134     -121.515137      -41.423779
 H         -44.448421     -120.144089      -42.740498
 H         -44.178123     -119.090179      -41.353237
