20
 generated by VMD
 C         -13.566894      -44.092079       -6.742829
 N         -13.706773      -43.920322       -5.636721
 H         -14.732238      -44.719547       -9.120103
 H         -14.392650      -43.811050      -10.490420
 C         -15.218227      -44.401718      -10.034041
 C         -16.434925      -43.461914       -9.692464
 C         -15.650950      -45.513039      -10.954510
 C         -16.957756      -42.905842      -11.009677
 C         -16.040874      -45.069073      -12.354216
 C         -17.126696      -44.006310      -12.085462
 H         -16.139219      -42.671543       -9.019901
 H         -17.221777      -43.979401       -9.125571
 H         -14.917312      -46.305855      -10.973623
 H         -16.456913      -46.119411      -10.504032
 H         -16.215622      -42.167797      -11.354018
 H         -17.908447      -42.353550      -10.813991
 H         -16.457365      -45.819603      -13.000212
 H         -15.130564      -44.735069      -12.863769
 H         -17.348530      -43.577095      -13.042016
 H         -18.022524      -44.578747      -11.774489
