20
 generated by VMD
 C         -43.030350     -120.768661      -35.349266
 N         -42.662899     -120.963615      -34.294559
 H         -44.324459     -121.244263      -38.829571
 H         -43.439880     -120.688332      -36.393192
 C         -44.136063     -120.212730      -38.711647
 C         -43.039570     -119.601425      -39.542686
 C         -45.190655     -119.287910      -38.068157
 C         -43.760418     -118.878044      -40.761787
 C         -45.961205     -118.768837      -39.293129
 C         -45.067963     -118.064728      -40.335636
 H         -42.539486     -120.408684      -40.029312
 H         -42.354885     -118.930336      -39.022717
 H         -45.867558     -119.751396      -37.391720
 H         -44.852192     -118.434128      -37.475269
 H         -43.811390     -119.740707      -41.484898
 H         -43.068909     -118.152298      -41.326958
 H         -46.636482     -117.998772      -39.076080
 H         -46.433697     -119.568909      -39.936581
 H         -45.705639     -117.981483      -41.208763
 H         -44.639488     -117.164207      -39.989803
