20
 generated by VMD
 C         -13.732179      -43.824451       -6.760160
 N         -13.493501      -43.843121       -5.667942
 H         -14.873284      -44.986156       -8.953548
 H         -14.304589      -43.996738      -10.403441
 C         -15.127052      -44.487492       -9.922669
 C         -16.341640      -43.522465       -9.725806
 C         -15.600579      -45.552681      -10.933040
 C         -16.976561      -42.920757      -10.958905
 C         -16.040155      -44.837261      -12.217148
 C         -17.223217      -43.866451      -12.103371
 H         -16.084421      -42.612206       -9.138350
 H         -17.074421      -44.155975       -9.173925
 H         -14.684132      -46.082687      -11.139606
 H         -16.444344      -46.091240      -10.470545
 H         -16.291664      -42.127270      -11.281878
 H         -17.936844      -42.416786      -10.721960
 H         -16.277134      -45.586517      -13.049280
 H         -15.228325      -44.198162      -12.570640
 H         -17.281359      -43.351414      -13.033408
 H         -18.169283      -44.335133      -11.998142
