20
 generated by VMD
 C         -50.593254     -145.047806      -44.961803
 N         -50.783367     -145.933151      -44.197296
 H         -53.728504     -144.463364      -46.507442
 H         -50.603748     -144.209717      -45.608597
 C         -53.615196     -143.537170      -47.055435
 C         -52.531242     -143.399094      -48.235313
 C         -54.689056     -142.559464      -47.093571
 C         -53.370266     -143.441345      -49.562317
 C         -55.445908     -142.648041      -48.437748
 C         -54.538761     -142.514175      -49.596386
 H         -51.849442     -144.280930      -48.187851
 H         -52.118534     -142.469925      -48.173428
 H         -55.345337     -142.547348      -46.253334
 H         -54.128700     -141.578659      -46.998405
 H         -53.688110     -144.435974      -49.781757
 H         -52.675110     -143.280304      -50.391273
 H         -56.153862     -141.814850      -48.584332
 H         -55.939533     -143.563309      -48.351887
 H         -55.028404     -142.690430      -50.507072
 H         -54.220894     -141.521271      -49.426525
