20
 generated by VMD
 C         -70.265144     -183.118713      -64.011879
 N         -69.977486     -183.313583      -65.143326
 H         -68.290024     -180.069473      -62.611958
 H         -70.533829     -182.901840      -62.956619
 C         -67.678482     -180.416946      -61.738029
 C         -67.846466     -181.811951      -61.250969
 C         -66.963715     -179.522751      -60.862892
 C         -66.442947     -182.385666      -60.958733
 C         -65.635689     -180.076935      -60.402039
 C         -65.726784     -181.570053      -59.819962
 H         -68.355843     -182.498611      -62.039589
 H         -68.544922     -181.771362      -60.365704
 H         -66.733315     -178.572723      -61.352882
 H         -67.602943     -179.481445      -60.011295
 H         -65.880424     -182.317169      -61.802834
 H         -66.707253     -183.367157      -60.658787
 H         -65.127693     -179.456741      -59.630085
 H         -65.084213     -180.125122      -61.372211
 H         -64.717323     -182.120422      -59.691422
 H         -66.282082     -181.498718      -58.847111
