20
 generated by VMD
 C         -79.458473     -205.038879      -70.888573
 N         -80.588188     -205.408615      -70.893005
 H         -76.969391     -203.238098      -69.369308
 H         -78.414215     -204.671814      -71.006851
 C         -75.948654     -203.137848      -69.505104
 C         -75.481712     -201.894226      -70.232841
 C         -75.069191     -204.215485      -69.097618
 C         -73.982758     -201.735031      -70.491081
 C         -73.547012     -203.787460      -68.975685
 C         -73.106422     -202.909531      -70.255249
 H         -75.851517     -201.004730      -69.737137
 H         -75.987656     -201.992935      -71.245071
 H         -75.422050     -204.656326      -68.179657
 H         -75.087234     -204.887970      -69.908638
 H         -73.694138     -200.965942      -69.760490
 H         -73.803810     -201.396423      -71.535301
 H         -72.912811     -204.711914      -69.037453
 H         -73.490509     -203.366516      -68.074371
 H         -72.135658     -202.576889      -70.283134
 H         -73.244621     -203.580963      -71.055199
