20
 generated by VMD
 C         -43.218613     -121.191322      -35.758049
 N         -43.396793     -120.498909      -34.840752
 H         -44.621231     -122.104752      -38.891525
 H         -43.372433     -121.863274      -36.651016
 C         -44.618343     -121.053337      -39.235729
 C         -43.293953     -120.508156      -39.774910
 C         -45.813084     -120.253792      -38.761051
 C         -43.577473     -119.091522      -40.413399
 C         -45.807838     -118.927574      -39.436428
 C         -44.421207     -118.296227      -39.557171
 H         -42.785702     -121.251419      -40.482677
 H         -42.614521     -120.311127      -38.908733
 H         -46.710751     -120.865135      -38.884502
 H         -45.674362     -120.249802      -37.648647
 H         -44.095482     -119.102600      -41.330811
 H         -42.649540     -118.685883      -40.745129
 H         -46.517044     -118.369591      -38.922260
 H         -46.252319     -118.981171      -40.343742
 H         -44.485996     -117.270424      -40.005135
 H         -44.125263     -118.279327      -38.478603
