20
 generated by VMD
 C         -74.988800     -201.469894      -66.566811
 N         -75.273445     -201.856888      -65.530037
 H         -76.311119     -199.265991      -69.135468
 H         -74.973091     -201.113220      -67.565620
 C         -75.224442     -198.982635      -69.075974
 C         -74.950294     -197.845383      -68.174644
 C         -74.216263     -199.589142      -70.002731
 C         -73.468727     -197.767212      -68.024719
 C         -73.124092     -198.644257      -70.466988
 C         -72.730431     -197.670395      -69.374069
 H         -75.388634     -198.162964      -67.229713
 H         -75.460144     -196.943939      -68.372757
 H         -73.710205     -200.385208      -69.453766
 H         -74.743179     -199.907898      -70.964211
 H         -73.204422     -198.707321      -67.527756
 H         -73.266937     -196.837189      -67.415695
 H         -73.355598     -198.148926      -71.401497
 H         -72.281090     -199.255936      -70.738724
 H         -71.765846     -197.730896      -69.052719
 H         -72.866653     -196.625641      -69.917503
