20
 generated by VMD
 C         -12.074731      -31.190973       -8.369226
 N         -11.972227      -30.634695       -7.385676
 H         -11.769562      -34.829845       -7.991813
 H         -12.921751      -34.069672       -6.805677
 C         -11.960358      -34.670254       -6.900690
 C         -10.867895      -33.850204       -6.149212
 C         -12.117106      -35.992092       -6.148648
 C         -11.150486      -33.617203       -4.625587
 C         -12.417180      -35.884121       -4.704056
 C         -11.433717      -34.960876       -3.983419
 H         -10.602472      -32.949177       -6.627486
 H          -9.922038      -34.439140       -6.110211
 H         -12.892394      -36.569008       -6.649855
 H         -11.163991      -36.507725       -6.326459
 H         -12.036080      -32.975796       -4.615570
 H         -10.358187      -33.145683       -4.078972
 H         -12.391233      -36.812695       -4.222477
 H         -13.473426      -35.448410       -4.576657
 H         -11.765860      -34.836323       -2.970723
 H         -10.513634      -35.530945       -3.905386
