20
 generated by VMD
 C         -28.533821      -88.184532      -26.032728
 N         -28.497307      -87.033455      -26.146601
 H         -31.227026      -89.471016      -26.220901
 H         -28.347971      -89.294594      -25.970873
 C         -32.149788      -88.988632      -26.510267
 C         -33.111378      -88.955170      -25.315523
 C         -32.717167      -88.838036      -27.866220
 C         -34.113647      -87.737999      -25.436001
 C         -33.885159      -87.830894      -27.882524
 C         -34.850491      -87.977547      -26.763464
 H         -32.524696      -88.934639      -24.456408
 H         -33.522362      -89.964584      -25.239717
 H         -32.049324      -88.436623      -28.607286
 H         -32.983204      -89.894791      -28.139753
 H         -33.469021      -86.837944      -25.455420
 H         -34.833305      -87.719727      -24.700819
 H         -34.591114      -87.910683      -28.801941
 H         -33.505543      -86.790565      -27.819235
 H         -35.616657      -87.156311      -26.835993
 H         -35.496223      -88.854462      -26.666809
