20
 generated by VMD
 C         -28.918913      -73.944626      -19.489737
 N         -29.977835      -74.437912      -19.553177
 H         -25.737381      -73.428627      -18.844927
 H         -27.766615      -73.559677      -19.381155
 C         -25.783268      -73.227318      -19.891838
 C         -25.342649      -74.361717      -20.785833
 C         -25.749260      -71.808449      -20.481546
 C         -25.861731      -74.250053      -22.136332
 C         -26.277840      -71.714073      -21.901949
 C         -25.478735      -72.879326      -22.626928
 H         -25.750368      -75.356194      -20.255518
 H         -24.219248      -74.495285      -20.735634
 H         -26.387375      -71.074646      -19.874277
 H         -24.734236      -71.526711      -20.261217
 H         -26.920725      -74.528824      -22.205051
 H         -25.376020      -75.039467      -22.713112
 H         -25.970953      -70.808128      -22.371191
 H         -27.254391      -71.888893      -22.023012
 H         -25.933203      -72.794014      -23.697979
 H         -24.378565      -72.737976      -22.712353
