20
 generated by VMD
 C         -38.015713     -109.715820      -36.417439
 N         -37.416676     -108.865402      -35.883926
 H         -40.589592     -112.245758      -36.917999
 H         -38.345840     -110.491219      -37.133450
 C         -41.318741     -112.520355      -36.157070
 C         -42.386154     -113.472145      -36.414059
 C         -41.736511     -111.384834      -35.356045
 C         -42.925987     -114.100227      -35.135151
 C         -42.289883     -111.949219      -33.980503
 C         -43.427956     -112.947273      -34.247768
 H         -41.974579     -114.332138      -37.013844
 H         -43.119476     -112.991905      -37.120716
 H         -40.744137     -110.853226      -35.133904
 H         -42.507172     -110.624054      -35.836845
 H         -42.135426     -114.683472      -34.652008
 H         -43.919048     -114.677750      -35.407475
 H         -42.492546     -111.130783      -33.269600
 H         -41.539444     -112.571945      -33.470898
 H         -43.707630     -113.300690      -33.282436
 H         -44.339367     -112.351990      -34.664661
