20
 generated by VMD
 C         -69.816925     -184.787827      -66.530685
 N         -69.007874     -184.486053      -67.272530
 H         -69.795929     -183.464172      -63.059689
 H         -70.565521     -185.034256      -65.780266
 C         -69.030586     -183.478821      -62.305344
 C         -69.496307     -184.511826      -61.303173
 C         -68.150604     -182.383026      -61.984047
 C         -68.209824     -185.118774      -60.781330
 C         -66.934502     -183.020432      -61.301350
 C         -67.226135     -184.074768      -60.253922
 H         -70.130730     -185.375488      -61.585213
 H         -70.046219     -183.921997      -60.521816
 H         -67.737617     -181.981949      -62.892262
 H         -68.680016     -181.619476      -61.453281
 H         -67.812515     -185.891632      -61.556992
 H         -68.390396     -185.640427      -59.794029
 H         -66.340569     -182.278458      -60.734982
 H         -66.443970     -183.389496      -62.163952
 H         -66.343521     -184.480667      -59.909210
 H         -67.730171     -183.597412      -59.334206
