20
 generated by VMD
 C         -50.699657     -129.108475      -42.744518
 N         -50.622231     -128.212097      -42.055077
 H         -48.404148     -127.717194      -39.902969
 H         -50.774227     -130.012573      -43.303844
 C         -47.411850     -127.555573      -40.540703
 C         -46.230377     -128.413376      -40.211224
 C         -47.120857     -126.275833      -41.188042
 C         -44.903561     -128.215515      -40.989098
 C         -45.870464     -126.206940      -42.030994
 C         -44.630787     -126.725731      -41.253853
 H         -46.594120     -129.473022      -40.349632
 H         -46.098534     -128.331573      -39.173031
 H         -47.974457     -126.121559      -41.921696
 H         -47.139164     -125.700165      -40.273617
 H         -45.160454     -128.651367      -41.956062
 H         -44.150879     -128.671295      -40.289646
 H         -45.749760     -125.138977      -42.256817
 H         -45.985760     -126.657906      -43.023182
 H         -43.681236     -126.530281      -41.861858
 H         -44.510326     -126.133003      -40.306282
