20
 generated by VMD
 C         -50.300121     -130.198242      -46.153893
 N         -50.922592     -130.137299      -45.112797
 H         -48.166775     -131.858063      -44.580177
 H         -50.038158     -130.487762      -47.181362
 C         -48.126801     -132.052673      -43.485161
 C         -48.340511     -133.303116      -42.631153
 C         -48.077641     -130.728470      -42.695301
 C         -47.734615     -133.242569      -41.236210
 C         -47.637768     -130.702667      -41.262466
 C         -48.157124     -131.909515      -40.575397
 H         -47.960617     -134.220856      -43.072826
 H         -49.473846     -133.451767      -42.539360
 H         -47.406040     -129.960693      -43.331272
 H         -49.127907     -130.427628      -42.750385
 H         -46.641422     -133.193115      -41.229393
 H         -48.103134     -134.018875      -40.580204
 H         -47.934761     -129.752487      -40.820511
 H         -46.423256     -130.807297      -41.271584
 H         -47.970985     -131.873047      -39.427063
 H         -49.242012     -131.853500      -40.543388
