20
 generated by VMD
 C         -52.721809     -147.181808      -45.374886
 N         -53.850597     -147.381958      -45.079723
 H         -54.767410     -147.432083      -48.058376
 H         -51.658157     -147.136261      -45.719269
 C         -54.550930     -146.452820      -48.580978
 C         -53.338387     -146.345367      -49.411850
 C         -55.164921     -145.242828      -48.094749
 C         -53.378582     -145.167709      -50.308918
 C         -55.174515     -144.024384      -48.941025
 C         -53.871750     -143.875366      -49.670559
 H         -53.092514     -147.162384      -50.046494
 H         -52.430611     -146.122726      -48.769440
 H         -56.130161     -145.537354      -47.832108
 H         -54.534420     -144.880417      -47.277431
 H         -53.860386     -145.371246      -51.176575
 H         -52.394745     -144.924301      -50.630207
 H         -55.521095     -143.128906      -48.488037
 H         -55.979820     -144.297577      -49.783783
 H         -54.102909     -143.151108      -50.511002
 H         -53.225533     -143.463608      -48.871761
