20
 generated by VMD
 C          -2.556111       -8.681092       -0.204846
 N          -1.468233       -8.631002       -0.383546
 H          -3.113990       -9.738450        2.747818
 H          -1.892825      -10.823614        3.459307
 C          -2.962326      -10.734364        3.164977
 C          -3.193223      -11.734640        2.036870
 C          -3.827863      -10.965607        4.415044
 C          -3.272072      -13.208488        2.493510
 C          -3.860870      -12.450150        4.839362
 C          -4.282431      -13.381058        3.702828
 H          -2.411227      -11.608634        1.252471
 H          -4.166202      -11.533194        1.597170
 H          -3.292594      -10.346702        5.207855
 H          -4.801614      -10.513310        4.180368
 H          -2.332098      -13.624514        2.857525
 H          -3.651689      -13.910436        1.724195
 H          -4.470319      -12.575764        5.765013
 H          -2.834179      -12.716624        5.161335
 H          -4.300296      -14.446325        3.996918
 H          -5.258325      -12.994720        3.404570
