20
 generated by VMD
 C         -51.815544     -146.085938      -43.930687
 N         -51.563133     -146.426666      -44.985882
 H         -53.881802     -145.549561      -46.959797
 H         -51.889141     -145.741669      -42.895401
 C         -53.911018     -144.820190      -47.749626
 C         -52.897041     -144.660217      -48.828156
 C         -54.828732     -143.613907      -47.464256
 C         -53.423542     -144.048477      -50.069191
 C         -55.387215     -143.110550      -48.811432
 C         -54.267765     -142.828156      -49.822529
 H         -52.366802     -145.605484      -49.094067
 H         -52.237236     -144.000748      -48.392689
 H         -55.583099     -144.085678      -46.807598
 H         -54.157997     -142.778503      -46.881348
 H         -54.090389     -144.858841      -50.561291
 H         -52.535782     -143.704910      -50.753990
 H         -55.901234     -142.100342      -48.658512
 H         -56.089458     -143.851700      -49.185749
 H         -54.757568     -142.626129      -50.735668
 H         -53.807777     -141.902634      -49.676502
