20
 generated by VMD
 C          -1.772701      -12.993576        0.540711
 N          -1.428061      -13.860057        1.152187
 H          -3.669634      -15.360385        1.992545
 H          -3.965390      -14.933675        0.325495
 C          -4.378253      -15.444109        1.173649
 C          -5.654987      -14.861183        1.791546
 C          -4.587915      -16.953539        0.888583
 C          -6.975864      -15.215547        1.083039
 C          -5.885885      -17.286350        0.174690
 C          -7.094609      -16.742710        0.885420
 H          -5.469220      -13.788568        1.816657
 H          -5.723228      -15.106408        2.901157
 H          -3.764523      -17.371536        0.318803
 H          -4.609467      -17.483492        1.850657
 H          -6.921216      -14.767325        0.104896
 H          -7.838836      -14.745247        1.529195
 H          -5.965539      -18.386898        0.144207
 H          -5.776558      -17.003988       -0.845363
 H          -8.058831      -17.080671        0.474515
 H          -7.035014      -17.161890        1.893582
