20
 generated by VMD
 C         -25.724638      -71.232513      -16.947260
 N         -26.006237      -72.055855      -16.187080
 H         -24.041603      -68.592529      -19.128510
 H         -25.651875      -70.446648      -17.597101
 C         -24.666996      -69.283989      -19.714291
 C         -24.049093      -70.365593      -20.513054
 C         -25.868345      -68.517555      -20.082249
 C         -24.976889      -71.162094      -21.299885
 C         -26.770578      -69.418503      -20.909224
 C         -25.924084      -70.316505      -21.930605
 H         -23.431887      -71.071907      -19.917181
 H         -23.238594      -69.851082      -21.165817
 H         -26.338179      -68.346825      -19.144554
 H         -25.487698      -67.592453      -20.592218
 H         -25.469637      -72.005806      -20.742899
 H         -24.396042      -71.696281      -22.031509
 H         -27.482307      -68.740822      -21.361572
 H         -27.153950      -70.236626      -20.285675
 H         -26.764809      -70.902481      -22.330315
 H         -25.380756      -69.680450      -22.674242
