20
 generated by VMD
 C         -70.239334     -197.218643      -66.153427
 N         -69.697525     -196.249420      -65.753357
 H         -71.903831     -194.439163      -64.783813
 H         -70.890495     -198.063339      -66.503601
 C         -72.546051     -194.059738      -65.587646
 C         -72.677002     -192.664581      -66.037323
 C         -73.321808     -195.153137      -66.308746
 C         -73.611214     -192.410629      -67.252602
 C         -73.904594     -194.890091      -67.701302
 C         -73.457603     -193.569519      -68.275558
 H         -71.563011     -192.422897      -66.414291
 H         -73.109360     -192.195007      -65.171761
 H         -72.741570     -196.091095      -66.444244
 H         -74.216759     -195.564896      -65.820274
 H         -73.379967     -191.403000      -67.692574
 H         -74.669960     -192.473328      -66.884644
 H         -74.989677     -194.930984      -67.619980
 H         -73.643692     -195.686768      -68.420288
 H         -72.509399     -193.664078      -68.609207
 H         -74.208176     -193.341507      -69.128616
