20
 generated by VMD
 C         -10.996113      -35.024590       -9.250450
 N         -10.494905      -35.206108       -8.300032
 H         -12.436236      -37.012081       -7.143364
 H         -13.650047      -37.247982       -5.994600
 C         -13.280667      -37.721275       -6.914234
 C         -12.686324      -39.053246       -6.721928
 C         -14.420823      -37.667931       -7.886714
 C         -13.780507      -40.013252       -6.311017
 C         -15.432623      -38.707802       -7.679326
 C         -14.858731      -40.061489       -7.428189
 H         -11.868710      -38.957298       -6.031754
 H         -12.228580      -39.458057       -7.599568
 H         -14.890338      -36.635387       -8.016184
 H         -14.017164      -37.849091       -8.917624
 H         -14.231503      -39.716648       -5.346855
 H         -13.372745      -41.052673       -6.091266
 H         -16.169485      -38.762436       -8.535457
 H         -16.034042      -38.394833       -6.802694
 H         -15.656238      -40.757935       -7.095071
 H         -14.430824      -40.439838       -8.396614
