20
 generated by VMD
 C         -56.288761     -149.944382      -46.611843
 N         -56.901752     -150.544067      -45.794682
 H         -53.336823     -147.855377      -47.577389
 H         -55.892757     -149.318619      -47.367138
 C         -53.647633     -147.389893      -48.548058
 C         -52.971497     -147.775925      -49.897484
 C         -54.601711     -146.279755      -48.500473
 C         -53.882172     -147.759903      -51.129723
 C         -55.385445     -145.891983      -49.870682
 C         -54.453262     -146.198425      -51.139854
 H         -52.621159     -148.739670      -49.700157
 H         -52.058300     -147.029465      -49.969528
 H         -55.302242     -146.517166      -47.724483
 H         -54.007313     -145.340698      -48.331051
 H         -54.775597     -148.364090      -50.988014
 H         -53.418579     -148.020187      -52.102249
 H         -55.917797     -144.824112      -49.910759
 H         -56.259460     -146.487213      -49.903599
 H         -55.027115     -146.089737      -52.072895
 H         -53.621475     -145.436203      -51.212440
