20
 generated by VMD
 C         -60.042953     -156.641296      -55.748543
 N         -60.914734     -156.088425      -56.164757
 H         -59.738750     -157.636810      -52.959278
 H         -59.184078     -157.099579      -55.245655
 C         -58.753998     -157.954651      -52.906555
 C         -57.623276     -157.020416      -52.616333
 C         -58.527431     -159.340347      -52.430611
 C         -57.375771     -156.911301      -51.074554
 C         -58.273556     -159.354645      -50.891891
 C         -57.093491     -158.414536      -50.556831
 H         -57.890911     -156.070633      -52.957336
 H         -56.861320     -157.477646      -53.260601
 H         -59.384010     -160.004440      -52.585808
 H         -57.733494     -159.790771      -52.967442
 H         -58.287758     -156.433945      -50.623829
 H         -56.661987     -156.225464      -50.740913
 H         -57.909065     -160.350586      -50.597092
 H         -59.244450     -159.286072      -50.234913
 H         -56.845158     -158.473190      -49.425327
 H         -56.193882     -158.777756      -50.941269
