20
 generated by VMD
 C         -41.075691     -103.906303      -35.933598
 N         -41.784225     -104.836121      -35.944187
 H         -38.811672     -103.860794      -32.732269
 H         -40.342834     -103.072693      -35.937767
 C         -38.365383     -104.848595      -32.801815
 C         -36.935493     -105.217972      -32.414677
 C         -39.292049     -105.990349      -33.178806
 C         -36.823402     -106.090157      -31.274204
 C         -39.205597     -107.041763      -31.981775
 C         -37.697369     -107.361336      -31.473221
 H         -36.447987     -104.279015      -32.254333
 H         -36.555561     -105.658813      -33.310097
 H         -40.273693     -105.645554      -33.239182
 H         -39.029930     -106.412903      -34.217007
 H         -36.939049     -105.499786      -30.327314
 H         -35.865005     -106.562233      -31.061544
 H         -39.907177     -107.857773      -32.073391
 H         -39.676697     -106.465424      -31.147640
 H         -37.605892     -107.945366      -30.486584
 H         -37.253311     -108.025558      -32.164745
