20
 generated by VMD
 C         -25.525869      -71.217163      -17.092073
 N         -25.384676      -71.157463      -15.955178
 H         -24.246410      -69.126762      -18.554007
 H         -25.622885      -71.219269      -18.199406
 C         -24.518986      -69.058266      -19.564945
 C         -23.861982      -69.875992      -20.549757
 C         -25.835983      -68.245773      -19.849266
 C         -24.883821      -70.749069      -21.222202
 C         -26.832275      -69.284210      -20.548796
 C         -26.100233      -70.020050      -21.786209
 H         -23.016392      -70.550583      -20.233091
 H         -23.342825      -69.216583      -21.199007
 H         -26.302299      -67.977562      -18.917801
 H         -25.634119      -67.526421      -20.646431
 H         -25.225143      -71.594048      -20.628077
 H         -24.316830      -71.253632      -22.022018
 H         -27.717363      -68.765396      -20.876684
 H         -27.154427      -70.089691      -19.896671
 H         -26.721041      -70.872437      -22.168793
 H         -25.601158      -69.489861      -22.602425
