20
 generated by VMD
 C         -29.136070      -80.991379      -27.342243
 N         -29.992012      -80.269661      -27.642534
 H         -28.404730      -82.336731      -24.144361
 H         -28.450014      -81.587128      -26.791359
 C         -29.294586      -82.975494      -23.908295
 C         -29.584084      -83.457664      -22.397926
 C         -29.947002      -83.872551      -24.957136
 C         -31.078592      -83.520699      -22.215509
 C         -31.467262      -84.032608      -24.663847
 C         -31.747931      -84.434906      -23.272482
 H         -29.074841      -82.752838      -21.655788
 H         -29.122746      -84.532364      -22.351564
 H         -29.671396      -83.619080      -25.995701
 H         -29.558643      -84.889374      -24.781162
 H         -31.470886      -82.466164      -22.323814
 H         -31.339523      -84.105766      -21.216776
 H         -31.906025      -84.900574      -25.379183
 H         -32.003319      -83.072746      -24.937263
 H         -32.836998      -84.375748      -23.152370
 H         -31.575651      -85.490410      -22.936432
