20
 generated by VMD
 C         -60.165401     -156.214523      -54.701111
 N         -60.326118     -155.290573      -55.382046
 H         -59.815231     -157.286118      -51.555347
 H         -59.963718     -157.183762      -54.211456
 C         -58.854118     -157.296722      -52.060364
 C         -58.195145     -155.973007      -52.311127
 C         -57.952679     -158.476746      -51.995041
 C         -57.191231     -155.857925      -51.147144
 C         -56.941387     -158.351440      -50.866669
 C         -56.250320     -156.988556      -50.997437
 H         -59.072330     -155.209595      -52.449497
 H         -57.673779     -155.954742      -53.305656
 H         -58.641590     -159.343521      -51.946445
 H         -57.527325     -158.645782      -52.931675
 H         -57.825314     -155.572021      -50.345722
 H         -56.443913     -155.053772      -51.470657
 H         -56.155575     -159.162811      -50.837326
 H         -57.551838     -158.516510      -49.963642
 H         -55.563343     -156.818970      -50.241714
 H         -55.528492     -157.024994      -51.913475
