20
 generated by VMD
 C         -26.714174      -71.872673      -17.551823
 N         -26.737093      -72.764153      -16.799622
 H         -24.201311      -69.270355      -18.807238
 H         -26.620005      -71.054619      -18.136623
 C         -24.674557      -69.768944      -19.714846
 C         -24.043356      -70.964890      -20.350765
 C         -25.712402      -68.946007      -20.436007
 C         -25.181667      -71.885445      -21.226749
 C         -26.633535      -69.892723      -21.169439
 C         -26.034771      -70.953850      -22.149426
 H         -23.530912      -71.535797      -19.550665
 H         -23.256302      -70.632889      -21.118311
 H         -26.270391      -68.307884      -19.655052
 H         -25.350075      -68.159065      -21.138016
 H         -25.806137      -72.393188      -20.542963
 H         -24.726927      -72.677795      -21.841349
 H         -27.441889      -69.236176      -21.579546
 H         -27.185755      -70.325089      -20.248716
 H         -26.831972      -71.422447      -22.689167
 H         -25.432171      -70.416679      -22.854956
