20
 generated by VMD
 C         -12.924773      -30.146114       -8.371967
 N         -13.864523      -30.496675       -8.853507
 H         -11.046695      -30.858593       -4.959992
 H         -10.913284      -31.606600       -3.503851
 C         -10.834863      -31.868917       -4.512224
 C          -9.425138      -32.438759       -4.876367
 C         -11.878047      -32.820198       -4.892973
 C          -9.230372      -33.843071       -4.233346
 C         -11.782809      -34.174629       -4.250771
 C         -10.363153      -34.832497       -4.489506
 H          -8.733999      -31.775146       -4.454789
 H          -9.282984      -32.399914       -5.981461
 H         -12.810774      -32.348923       -4.525703
 H         -11.985808      -32.801479       -5.993145
 H          -9.117626      -33.742500       -3.111115
 H          -8.245664      -34.210236       -4.608100
 H         -12.592650      -34.851635       -4.689254
 H         -11.914636      -34.142170       -3.196110
 H         -10.274532      -35.722805       -3.765699
 H         -10.225586      -35.317364       -5.455640
