20
 generated by VMD
 C         -38.162060     -110.116508      -36.174461
 N         -37.576778     -109.114288      -36.193851
 H         -40.143772     -113.062447      -36.584385
 H         -38.647461     -111.067665      -36.167072
 C         -41.127716     -113.125137      -36.043472
 C         -42.265884     -113.837791      -36.586910
 C         -41.512505     -111.988258      -35.169582
 C         -43.446060     -114.150665      -35.600574
 C         -42.552681     -112.276352      -34.098083
 C         -43.812359     -112.960304      -34.683559
 H         -42.004116     -114.731148      -37.172031
 H         -42.670685     -113.226822      -37.381397
 H         -40.481277     -111.759186      -34.808788
 H         -41.790462     -111.097893      -35.878822
 H         -43.181190     -115.006813      -35.062233
 H         -44.357971     -114.234253      -36.275284
 H         -42.849670     -111.257301      -33.601303
 H         -42.291702     -112.960014      -33.229267
 H         -44.358784     -113.362068      -33.891834
 H         -44.520496     -112.248688      -35.186375
