20
 generated by VMD
 C         -60.840542     -154.886658      -51.454880
 N         -60.851871     -154.016586      -52.270702
 H         -57.462006     -153.683914      -53.054157
 H         -60.933399     -155.715927      -50.715099
 C         -56.804081     -153.749420      -52.202366
 C         -57.344994     -154.012756      -50.835281
 C         -55.511536     -153.031982      -52.381252
 C         -56.125095     -154.302292      -49.906078
 C         -54.479507     -153.471832      -51.430843
 C         -54.997002     -153.388245      -50.016598
 H         -58.234695     -154.767975      -50.852989
 H         -57.838871     -153.103683      -50.346226
 H         -55.177471     -153.291779      -53.369469
 H         -55.631157     -151.955124      -52.420437
 H         -55.794487     -155.348541      -50.000023
 H         -56.472443     -154.443283      -48.909454
 H         -53.534306     -152.827835      -51.545177
 H         -54.209484     -154.457275      -51.767288
 H         -54.195190     -153.756683      -49.313770
 H         -55.190376     -152.360001      -49.592068
