20
 generated by VMD
 C         -60.833580     -155.127853      -52.588631
 N         -60.721386     -154.093796      -52.171627
 H         -57.918751     -154.264633      -52.740791
 H         -60.833313     -156.087128      -53.002083
 C         -57.067215     -154.146805      -52.079044
 C         -57.432026     -154.092026      -50.647263
 C         -55.795696     -153.495117      -52.465916
 C         -56.361752     -154.410767      -49.701450
 C         -54.643936     -153.962814      -51.559437
 C         -54.968513     -153.795166      -50.121300
 H         -58.276585     -154.777069      -50.440079
 H         -57.833630     -153.099899      -50.314384
 H         -55.588409     -153.798843      -53.528038
 H         -55.957199     -152.445709      -52.592625
 H         -55.961330     -155.544830      -49.775902
 H         -56.665268     -154.299530      -48.626377
 H         -53.728245     -153.381409      -51.907696
 H         -54.425282     -155.032867      -51.605824
 H         -54.131546     -154.141220      -49.568043
 H         -54.969067     -152.696426      -49.717293
