20
 generated by VMD
 C         -63.192669     -174.378540      -56.784222
 N         -62.479404     -175.041733      -56.125252
 H         -66.541328     -173.062012      -58.431950
 H         -64.053215     -173.923141      -57.235062
 C         -65.648941     -172.469925      -58.582447
 C         -65.736481     -170.948761      -58.177143
 C         -64.706795     -172.960190      -59.719685
 C         -64.303024     -170.322144      -58.114021
 C         -63.243843     -172.365677      -59.376419
 C         -63.394314     -170.813049      -59.281651
 H         -66.334900     -170.716446      -57.163174
 H         -66.297600     -170.458908      -58.891331
 H         -64.795898     -173.965805      -59.973995
 H         -65.051666     -172.595871      -60.680748
 H         -63.855572     -170.521317      -57.188103
 H         -64.451729     -169.279694      -58.235188
 H         -62.540688     -172.504211      -60.218830
 H         -62.833397     -172.830536      -58.510902
 H         -62.370468     -170.417130      -59.224541
 H         -63.689728     -170.482468      -60.224876
