20
 generated by VMD
 C         -20.009981      -50.151741      -10.003969
 N         -19.957867      -51.242821       -9.533901
 H         -16.640657      -48.563469      -10.033006
 H         -19.708044      -49.239113      -10.188143
 C         -16.939650      -48.779808      -11.012345
 C         -15.985153      -49.758221      -11.614397
 C         -17.606497      -47.818199      -11.952983
 C         -16.145365      -50.159492      -13.104203
 C         -17.793701      -48.427898      -13.353066
 C         -16.576122      -49.011082      -13.996382
 H         -16.131113      -50.686047      -10.995739
 H         -14.982578      -49.303833      -11.514590
 H         -18.591753      -47.584175      -11.494125
 H         -17.053471      -46.845860      -11.941599
 H         -17.004667      -50.860638      -13.135451
 H         -15.189606      -50.587086      -13.431737
 H         -18.121668      -47.654709      -13.991878
 H         -18.518127      -49.266159      -13.196714
 H         -16.675707      -49.383324      -15.040952
 H         -15.834064      -48.193138      -14.070753
