20
 generated by VMD
 C         -73.853920     -201.549332      -65.318420
 N         -72.855270     -201.079773      -65.690254
 H         -74.782410     -198.080017      -66.819252
 H         -74.702423     -202.235245      -65.100349
 C         -74.724190     -197.586243      -67.810074
 C         -74.794296     -196.077225      -67.923370
 C         -74.214195     -198.472672      -68.905197
 C         -73.527100     -195.498352      -68.452911
 C         -73.565132     -197.604874      -70.002838
 C         -72.770042     -196.460312      -69.518829
 H         -74.948257     -195.414459      -66.976097
 H         -75.631523     -195.756989      -68.441078
 H         -73.437508     -199.146378      -68.455528
 H         -75.041405     -199.167007      -69.222778
 H         -72.780037     -195.241943      -67.658134
 H         -73.712883     -194.600006      -69.017250
 H         -74.408440     -197.171051      -70.561203
 H         -72.933929     -198.242310      -70.631172
 H         -72.025322     -196.898453      -68.930443
 H         -72.350983     -195.900299      -70.396675
