20
 generated by VMD
 C         -11.014581      -33.116035       -8.610878
 N         -10.766994      -33.973793       -9.309037
 H         -12.770625      -34.194118       -6.518064
 H         -13.224853      -34.840988       -4.972673
 C         -12.953984      -35.106915       -6.011788
 C         -11.691936      -35.906612       -6.194081
 C         -14.173687      -35.833912       -6.580665
 C         -11.708837      -37.303562       -5.589176
 C         -14.316660      -37.175442       -5.839409
 C         -13.016132      -38.009079       -5.952035
 H         -10.808026      -35.347542       -5.826923
 H         -11.563978      -36.093334       -7.258992
 H         -15.073101      -35.160641       -6.500727
 H         -13.983124      -36.090042       -7.625426
 H         -11.691841      -37.241886       -4.439249
 H         -10.892182      -37.924873       -5.967778
 H         -15.146099      -37.763233       -6.183805
 H         -14.460759      -36.970341       -4.760694
 H         -13.015517      -38.907764       -5.324220
 H         -12.965884      -38.293972       -6.977787
