20
 generated by VMD
 C         -12.526548      -31.050623       -8.397591
 N         -12.063745      -30.428082       -7.607378
 H         -11.735074      -34.205868       -7.701380
 H         -12.680434      -33.511211       -6.376785
 C         -11.866585      -34.153690       -6.627321
 C         -10.610726      -33.543976       -5.977929
 C         -12.153136      -35.527115       -5.997777
 C         -10.707719      -33.576359       -4.469621
 C         -12.295260      -35.599686       -4.560388
 C         -11.123029      -34.981388       -3.922277
 H         -10.425836      -32.497166       -6.295029
 H          -9.788193      -34.223568       -6.271278
 H         -13.036736      -35.916237       -6.529027
 H         -11.288969      -36.121094       -6.274115
 H         -11.550793      -32.971798       -4.099304
 H          -9.715490      -33.292240       -4.012776
 H         -12.416450      -36.718246       -4.228338
 H         -13.111819      -35.044765       -4.177966
 H         -11.291834      -34.967365       -2.810977
 H         -10.274574      -35.653130       -4.067556
