20
 generated by VMD
 C         -60.133194     -156.249908      -54.850861
 N         -60.371822     -155.217590      -55.398380
 H         -59.890644     -157.409180      -51.662575
 H         -59.923466     -157.169281      -54.324650
 C         -58.907669     -157.370300      -52.060738
 C         -58.224911     -156.068100      -52.283428
 C         -58.010540     -158.587494      -52.025990
 C         -57.205738     -155.789444      -51.239475
 C         -56.972069     -158.387161      -50.824524
 C         -56.166679     -157.063141      -50.974377
 H         -58.900288     -155.192947      -52.200207
 H         -57.790901     -156.030426      -53.330276
 H         -58.474194     -159.499756      -51.796875
 H         -57.371864     -158.647507      -52.952557
 H         -57.579681     -155.657623      -50.197575
 H         -56.769455     -154.782715      -51.297791
 H         -56.346947     -159.266968      -50.676418
 H         -57.456848     -158.221741      -49.733746
 H         -55.563374     -156.868958      -50.064598
 H         -55.474712     -157.110870      -51.811764
