20
 generated by VMD
 C         -31.593380      -78.597656      -26.377113
 N         -31.229975      -77.939682      -27.224230
 H         -29.512413      -79.518478      -23.635612
 H         -32.000591      -78.973686      -25.397039
 C         -29.025417      -80.556740      -23.645905
 C         -27.578131      -80.731445      -23.316465
 C         -29.951662      -81.821976      -23.527342
 C         -27.577795      -81.018593      -21.848316
 C         -29.945658      -82.112854      -22.061844
 C         -28.503843      -82.247726      -21.482807
 H         -27.093649      -79.724594      -23.494152
 H         -27.072763      -81.582733      -23.800014
 H         -30.913046      -81.459557      -24.033922
 H         -29.574200      -82.658638      -24.027004
 H         -27.898029      -80.028000      -21.334047
 H         -26.553411      -81.146530      -21.545504
 H         -30.592691      -82.920113      -21.988928
 H         -30.430067      -81.367462      -21.422216
 H         -28.523376      -82.340500      -20.391809
 H         -28.102724      -83.268333      -21.698755
