20
 generated by VMD
 C         -78.980812     -206.853806      -75.375816
 N         -79.638443     -207.060760      -76.264854
 H         -78.288239     -209.719833      -73.316612
 H         -78.335091     -206.435684      -74.623657
 C         -77.868874     -209.739975      -72.245415
 C         -76.710083     -208.808990      -72.000862
 C         -78.226318     -210.757172      -71.188988
 C         -76.697983     -208.315475      -70.462990
 C         -78.238708     -210.162079      -69.854668
 C         -76.999260     -209.455231      -69.590546
 H         -76.745598     -207.916214      -72.639343
 H         -75.725670     -209.301147      -72.232201
 H         -79.166847     -211.295990      -71.480530
 H         -77.435104     -211.506882      -71.197739
 H         -77.412941     -207.472214      -70.327042
 H         -75.721504     -207.924301      -70.082008
 H         -78.339745     -210.851639      -69.026474
 H         -79.088158     -209.449478      -69.824402
 H         -76.664536     -209.208450      -68.589638
 H         -76.335587     -210.275574      -69.816917
