20
 generated by VMD
 C         -49.656551     -131.721466      -46.619198
 N         -50.132004     -132.577377      -47.279739
 H         -47.559551     -133.568604      -43.860260
 H         -49.107693     -131.093063      -45.942207
 C         -48.602325     -133.461716      -43.663422
 C         -49.377686     -134.695862      -44.038719
 C         -49.099667     -132.690689      -42.467964
 C         -49.540714     -135.684128      -42.765739
 C         -49.243687     -133.595856      -41.270435
 C         -49.998005     -134.857437      -41.541176
 H         -49.031651     -135.268417      -44.917625
 H         -50.387356     -134.298035      -44.352287
 H         -48.471149     -131.919159      -42.184681
 H         -50.037979     -132.241241      -42.826622
 H         -48.569973     -136.123840      -42.753273
 H         -50.328182     -136.396667      -43.072857
 H         -49.595375     -132.871033      -40.447109
 H         -48.240078     -133.971573      -40.953526
 H         -50.199478     -135.485443      -40.712181
 H         -51.089062     -134.650269      -41.823387
