20
 generated by VMD
 C         -15.326729      -47.590286       -6.127675
 N         -15.537830      -46.655487       -5.561913
 H         -16.509024      -46.920361       -9.865043
 H         -15.187491      -46.725666      -11.187733
 C         -16.245148      -46.562607      -10.916740
 C         -16.413193      -45.062492      -10.790457
 C         -17.101429      -47.260010      -12.016640
 C         -16.228886      -44.454605      -12.190729
 C         -16.864376      -46.670208      -13.429461
 C         -17.083385      -45.180355      -13.237404
 H         -15.711255      -44.608383      -10.068294
 H         -17.418055      -44.886703      -10.439109
 H         -16.963167      -48.316891      -12.055257
 H         -18.174795      -47.173496      -11.800398
 H         -15.174926      -44.450226      -12.502554
 H         -16.484879      -43.397678      -12.178493
 H         -17.644129      -47.111683      -13.988918
 H         -15.938203      -47.018917      -13.998388
 H         -17.046503      -44.600014      -14.178165
 H         -18.171022      -45.075317      -13.013345
