20
 generated by VMD
 C         -68.864128     -188.640442      -67.011719
 N         -68.123260     -189.463852      -66.649445
 H         -68.281143     -187.691727      -63.379074
 H         -69.656822     -187.992691      -67.370056
 C         -69.334694     -187.924911      -63.280937
 C         -69.686874     -189.426834      -63.467857
 C         -70.520729     -186.934219      -62.870472
 C         -70.895470     -189.594589      -64.267250
 C         -71.789543     -187.253784      -63.722561
 C         -72.071701     -188.768219      -63.833408
 H         -69.867554     -189.982056      -62.508854
 H         -68.741821     -189.898529      -63.871853
 H         -70.717468     -187.109665      -61.834038
 H         -70.223831     -185.916885      -63.190060
 H         -71.201248     -190.660599      -64.275841
 H         -70.748474     -189.403320      -65.313065
 H         -71.484360     -186.928162      -64.765335
 H         -72.714272     -186.768723      -63.315189
 H         -72.497078     -189.329620      -62.979450
 H         -72.705437     -188.857925      -64.624397
