20
 generated by VMD
 C          -9.979246      -24.612850        0.372551
 N         -10.429402      -25.101038       -0.515796
 H          -6.243964      -24.646442       -0.946097
 H          -7.992563      -24.566401       -1.011814
 C          -7.078116      -24.437086       -1.642620
 C          -7.155406      -25.489010       -2.707281
 C          -6.891388      -22.999226       -2.189002
 C          -8.008177      -25.086950       -3.836002
 C          -7.766689      -22.609629       -3.387000
 C          -7.723403      -23.695869       -4.443450
 H          -7.499959      -26.498575       -2.260153
 H          -6.176767      -25.779240       -3.073963
 H          -7.041973      -22.253031       -1.425915
 H          -5.799151      -22.829880       -2.406798
 H          -9.086352      -25.237461       -3.665556
 H          -7.854538      -25.859989       -4.649049
 H          -7.393323      -21.694782       -3.868516
 H          -8.813104      -22.390800       -3.072648
 H          -8.470280      -23.447453       -5.145689
 H          -6.775976      -23.623337       -4.991477
