20
 generated by VMD
 C         -66.697777     -190.256790      -66.674271
 N         -67.759491     -190.222031      -66.143143
 H         -70.579659     -190.813461      -66.406342
 H         -65.664062     -190.522552      -67.042152
 C         -71.179428     -190.438538      -65.599525
 C         -72.397453     -191.188721      -65.201340
 C         -70.535240     -189.425720      -64.816063
 C         -73.357422     -190.353439      -64.252563
 C         -71.402039     -188.633209      -63.854073
 C         -72.546745     -189.563171      -63.192276
 H         -71.931007     -192.118958      -64.739876
 H         -72.920265     -191.642792      -66.117844
 H         -69.668922     -189.875717      -64.245338
 H         -69.958603     -188.631424      -65.514748
 H         -74.123177     -190.945663      -63.806450
 H         -74.047539     -189.677383      -64.798058
 H         -71.917282     -187.808716      -64.448349
 H         -70.817017     -188.169159      -63.073055
 H         -71.930550     -190.194336      -62.493961
 H         -73.408760     -189.008072      -62.613117
