20
 generated by VMD
 C         -20.886238      -52.385605      -11.294047
 N         -21.473549      -52.912178      -10.485587
 H         -19.459146      -50.010490      -13.821376
 H         -20.559052      -51.816601      -12.423200
 C         -18.934639      -50.618683      -13.163826
 C         -18.409512      -51.952892      -13.752290
 C         -17.985197      -50.113693      -12.125449
 C         -17.009777      -51.867718      -14.289886
 C         -16.503792      -50.222057      -12.456144
 C         -16.042152      -51.498470      -13.185453
 H         -19.148336      -52.337875      -14.414411
 H         -18.345774      -52.618217      -12.862908
 H         -18.174765      -49.017487      -12.011105
 H         -18.290434      -50.522400      -11.111087
 H         -17.084084      -51.167011      -15.145984
 H         -16.673979      -52.765022      -14.818757
 H         -15.971713      -50.054279      -11.569561
 H         -16.181202      -49.372066      -13.149865
 H         -15.040196      -51.513802      -13.526270
 H         -16.164410      -52.268421      -12.447969
