20
 generated by VMD
 C         -11.034562      -33.540939       -9.436004
 N         -10.655566      -32.733086       -8.716314
 H         -12.174304      -35.955078       -7.950130
 H         -12.362491      -35.263439       -6.324522
 C         -12.528487      -36.163040       -6.917407
 C         -11.709096      -37.355862       -6.405331
 C         -14.057180      -36.421230       -7.176964
 C         -12.406528      -37.949112       -5.192015
 C         -14.660906      -37.192654       -6.005924
 C         -13.790797      -38.386841       -5.567842
 H         -10.724273      -37.016514       -6.040355
 H         -11.593081      -38.118702       -7.205267
 H         -14.575049      -35.418812       -7.110734
 H         -14.225956      -36.885406       -8.129532
 H         -12.402541      -37.129681       -4.459682
 H         -11.785365      -38.755714       -4.904916
 H         -15.751013      -37.512009       -6.260771
 H         -14.764575      -36.517658       -5.169902
 H         -14.329496      -38.822918       -4.713899
 H         -13.773421      -39.191383       -6.335787
