20
 generated by VMD
 C         -70.476570     -198.689529      -64.282486
 N         -70.068558     -198.355865      -65.308327
 H         -72.787788     -196.625275      -66.514954
 H         -70.691811     -199.129364      -63.317245
 C         -73.231400     -195.808060      -67.059898
 C         -73.292931     -194.479980      -66.475128
 C         -74.178436     -196.303116      -68.109894
 C         -73.241753     -193.475525      -67.709427
 C         -74.867653     -195.100815      -68.793983
 C         -73.834068     -193.971222      -69.075516
 H         -72.560410     -194.377579      -65.624489
 H         -74.201691     -194.404434      -65.978737
 H         -73.813660     -197.165176      -68.750618
 H         -75.049072     -196.857315      -67.657860
 H         -72.176338     -193.286072      -67.896431
 H         -73.786346     -192.550110      -67.365875
 H         -75.739410     -194.617294      -68.322128
 H         -75.290077     -195.407211      -69.771141
 H         -73.035957     -194.264511      -69.781609
 H         -74.210281     -192.946747      -69.498383
