20
 generated by VMD
 C         -59.473640     -157.888947      -56.404209
 N         -58.943333     -158.700882      -57.006775
 H         -60.522469     -157.811279      -53.125225
 H         -59.979614     -157.158493      -55.780304
 C         -59.973927     -158.663361      -52.793053
 C         -58.558331     -158.410706      -52.398937
 C         -60.388687     -159.991989      -53.114441
 C         -57.904537     -159.519165      -51.557709
 C         -59.959488     -161.095963      -52.107456
 C         -58.392151     -160.991928      -51.968952
 H         -58.492931     -157.393341      -51.998409
 H         -58.077457     -158.268875      -53.400002
 H         -61.471939     -159.921463      -53.097206
 H         -59.971375     -160.265274      -54.040707
 H         -58.122372     -159.366821      -50.540058
 H         -56.805840     -159.382797      -51.772884
 H         -60.320381     -162.044830      -52.426296
 H         -60.325356     -160.870270      -51.066929
 H         -58.067619     -161.615128      -51.095402
 H         -57.882847     -161.289001      -52.994923
