20
 generated by VMD
 C         -63.220646     -174.861542      -55.104725
 N         -62.805794     -174.297943      -56.010555
 H         -64.863823     -173.277954      -57.914013
 H         -63.701832     -175.270218      -54.234283
 C         -64.585419     -172.344788      -58.323315
 C         -64.611938     -171.170135      -57.516617
 C         -64.392555     -172.435516      -59.759842
 C         -63.925320     -169.941391      -58.174351
 C         -63.734585     -171.161423      -60.431171
 C         -64.208679     -169.931412      -59.665451
 H         -64.086388     -171.303986      -56.481274
 H         -65.532051     -170.816635      -57.315220
 H         -63.815071     -173.387665      -60.127453
 H         -65.410660     -172.532867      -60.337769
 H         -62.853371     -169.856216      -57.853535
 H         -64.398476     -169.042374      -57.743469
 H         -64.107864     -171.116501      -61.434303
 H         -62.654243     -171.219955      -60.388840
 H         -63.730164     -169.030243      -60.158722
 H         -65.248100     -169.831223      -59.918774
