20
 generated by VMD
 C         -48.078335     -140.171173      -45.860874
 N         -46.927029     -139.847977      -45.674953
 H         -51.006344     -139.233597      -45.182278
 H         -49.130226     -140.200714      -46.051163
 C         -52.011608     -139.250687      -45.597710
 C         -52.184486     -139.449875      -47.120934
 C         -53.200390     -139.177658      -44.778561
 C         -53.201561     -140.520370      -47.401966
 C         -54.118408     -140.332260      -45.053360
 C         -54.413368     -140.345215      -46.582417
 H         -51.213539     -139.592392      -47.692940
 H         -52.414314     -138.470566      -47.555031
 H         -52.965801     -139.211288      -43.680279
 H         -53.724911     -138.206833      -44.924576
 H         -52.729115     -141.530045      -47.479603
 H         -53.592468     -140.248779      -48.385296
 H         -55.002502     -140.235657      -44.422943
 H         -53.706505     -141.364151      -44.827488
 H         -55.075043     -141.153702      -46.765465
 H         -54.794353     -139.426620      -46.934063
