20
 generated by VMD
 C         -60.074123     -156.594879      -55.531059
 N         -60.888947     -155.928223      -56.122757
 H         -59.804241     -157.656204      -52.802124
 H         -59.323109     -157.115738      -54.868431
 C         -58.757099     -157.994537      -52.860283
 C         -57.656059     -156.951904      -52.686718
 C         -58.440281     -159.335968      -52.374992
 C         -57.302563     -156.794220      -51.142365
 C         -58.149757     -159.335648      -50.886391
 C         -57.092064     -158.139999      -50.507587
 H         -57.913868     -156.002991      -53.201988
 H         -56.705032     -157.279907      -52.967556
 H         -59.323151     -159.913284      -52.725986
 H         -57.618793     -159.810974      -52.901112
 H         -58.205521     -156.333817      -50.683849
 H         -56.522022     -155.957535      -51.046089
 H         -57.818523     -160.322601      -50.574444
 H         -58.987511     -159.286682      -50.290440
 H         -57.012024     -158.016174      -49.471207
 H         -56.106510     -158.586945      -50.847431
