20
 generated by VMD
 C         -50.637089     -129.984253      -45.117649
 N         -51.368160     -129.213547      -44.562912
 H         -49.014172     -129.456360      -42.789097
 H         -50.007290     -130.588623      -45.749100
 C         -48.136654     -129.593552      -42.042591
 C         -47.993496     -130.918900      -41.535900
 C         -47.458622     -128.394043      -41.474655
 C         -46.507683     -131.195084      -41.191769
 C         -46.020107     -128.656631      -41.268188
 C         -45.860481     -129.960403      -40.454277
 H         -48.363628     -131.589676      -42.414013
 H         -48.632137     -131.069260      -40.713608
 H         -47.584961     -127.577850      -42.150192
 H         -48.109894     -128.006042      -40.572426
 H         -46.113754     -131.557587      -42.103210
 H         -46.406925     -132.043961      -40.572506
 H         -45.562149     -127.767517      -40.735603
 H         -45.601635     -128.672104      -42.302910
 H         -44.811672     -130.193741      -40.184464
 H         -46.477959     -129.882828      -39.534393
