20
 generated by VMD
 C         -10.519860      -33.331276       -9.496724
 N         -10.945437      -32.537312       -8.830242
 H         -11.949264      -36.178627       -7.920193
 H         -12.489923      -35.616863       -6.303769
 C         -12.521569      -36.494949       -7.029513
 C         -11.813102      -37.742870       -6.466384
 C         -13.976602      -36.798996       -7.344057
 C         -12.564280      -38.228912       -5.189055
 C         -14.706388      -37.138821       -6.063025
 C         -14.088404      -38.374119       -5.377866
 H         -10.810410      -37.403973       -6.133089
 H         -11.633155      -38.503735       -7.197978
 H         -14.429638      -35.915272       -7.828572
 H         -14.099173      -37.557823       -8.142732
 H         -12.473812      -37.602291       -4.325600
 H         -12.172312      -39.165974       -4.931496
 H         -15.721252      -37.412651       -6.309339
 H         -14.784724      -36.230938       -5.365057
 H         -14.567973      -38.675045       -4.378403
 H         -14.291926      -39.217522       -6.043807
