20
 generated by VMD
 C         -18.907513      -49.975491       -9.422892
 N         -19.565235      -50.894306       -9.607864
 H         -16.463505      -47.346348      -10.070012
 H         -18.219557      -48.857788       -9.703036
 C         -16.526535      -47.771061      -11.058831
 C         -15.690542      -48.956333      -11.455617
 C         -17.503168      -47.076809      -11.986315
 C         -16.274437      -49.739170      -12.633593
 C         -17.980907      -47.965248      -13.137162
 C         -16.925285      -48.869434      -13.690783
 H         -15.587667      -49.627613      -10.635329
 H         -14.686712      -48.568581      -11.729927
 H         -18.393089      -46.679436      -11.433545
 H         -16.979811      -46.192085      -12.421411
 H         -17.024582      -50.407177      -12.238627
 H         -15.486069      -50.360771      -13.058287
 H         -18.379549      -47.411026      -13.951332
 H         -18.830929      -48.649502      -12.711427
 H         -17.432570      -49.404209      -14.452698
 H         -16.171436      -48.345680      -14.183210
