20
 generated by VMD
 C         -50.288483     -131.941086      -46.888977
 N         -49.953323     -132.464279      -47.909180
 H         -48.020130     -132.050278      -43.777218
 H         -50.694164     -131.529282      -45.992069
 C         -48.703915     -132.522690      -43.142902
 C         -49.495823     -133.647659      -43.710037
 C         -48.752373     -132.284912      -41.666794
 C         -49.276562     -134.936264      -42.857079
 C         -48.510628     -133.645218      -40.935200
 C         -49.509693     -134.653931      -41.351871
 H         -49.127254     -133.913605      -44.793846
 H         -50.550964     -133.404800      -43.735439
 H         -47.939320     -131.513245      -41.379513
 H         -49.702324     -131.841400      -41.331467
 H         -48.197033     -135.158081      -42.978050
 H         -49.841755     -135.825821      -43.189682
 H         -48.735348     -133.374252      -39.957142
 H         -47.443851     -133.901871      -41.140007
 H         -49.445969     -135.593002      -40.759945
 H         -50.564499     -134.274307      -41.163609
