20
 generated by VMD
 C         -12.630742      -26.987720       -2.608887
 N         -12.462572      -27.767159       -1.841527
 H         -10.590402      -26.693304       -4.119205
 H          -9.372766      -26.005680       -5.195779
 C          -9.496876      -26.616821       -4.322881
 C          -8.986774      -28.074846       -4.565999
 C          -8.798732      -25.882984       -3.224200
 C          -7.459496      -28.278219       -4.387280
 C          -7.327916      -26.061665       -3.242051
 C          -6.879600      -27.541615       -3.221699
 H          -9.380118      -28.317814       -5.624374
 H          -9.409469      -28.671623       -3.794092
 H          -8.968906      -24.794693       -3.217248
 H          -9.140862      -26.245583       -2.272244
 H          -6.917364      -27.896362       -5.320559
 H          -7.279822      -29.388145       -4.193681
 H          -6.879532      -25.635326       -2.329365
 H          -6.861975      -25.641392       -4.157147
 H          -5.781706      -27.575401       -3.259270
 H          -7.198288      -28.001114       -2.304774
