20
 generated by VMD
 C         -60.355240     -170.356339      -55.126797
 N         -59.252777     -170.414001      -55.390793
 H         -62.964993     -170.599457      -56.401287
 H         -61.394764     -170.225967      -54.946766
 C         -63.309761     -169.643433      -56.855659
 C         -62.355015     -168.942886      -57.856411
 C         -64.519333     -168.767502      -56.269585
 C         -63.017841     -167.903931      -58.784977
 C         -65.029129     -167.720779      -57.185867
 C         -63.947895     -167.043579      -57.973804
 H         -61.933273     -169.732681      -58.630089
 H         -61.574631     -168.529678      -57.386898
 H         -65.310760     -169.523041      -55.965736
 H         -64.096771     -168.328613      -55.346275
 H         -63.628220     -168.145584      -59.696503
 H         -62.165504     -167.272690      -59.228256
 H         -65.512749     -166.947372      -56.629715
 H         -65.718636     -168.218338      -57.892040
 H         -64.371773     -166.316971      -58.654087
 H         -63.425571     -166.355530      -57.278755
