20
 generated by VMD
 C         -70.105736     -197.320145      -66.132454
 N         -69.574074     -196.331055      -65.743240
 H         -71.893837     -194.157074      -64.872482
 H         -70.637177     -198.185486      -66.509392
 C         -72.630325     -193.973969      -65.622078
 C         -72.752708     -192.535019      -66.029297
 C         -73.229797     -195.162659      -66.260605
 C         -73.623421     -192.388397      -67.269363
 C         -73.945312     -194.820602      -67.616196
 C         -73.542740     -193.472824      -68.304016
 H         -71.811386     -192.205444      -66.229324
 H         -73.177757     -191.949051      -65.161842
 H         -72.381004     -195.716995      -66.600014
 H         -73.922668     -195.523438      -65.484291
 H         -73.344742     -191.505737      -67.814613
 H         -74.604454     -192.169449      -66.889702
 H         -75.028473     -194.740356      -67.415489
 H         -73.803932     -195.681473      -68.298279
 H         -72.426620     -193.640656      -68.767845
 H         -74.181618     -193.280411      -69.111526
