20
 generated by VMD
 C         -41.046951     -101.383484      -32.695881
 N         -42.000141     -101.519600      -33.299866
 H         -38.702473     -103.059937      -32.371521
 H         -40.155426     -101.618988      -32.034470
 C         -37.730446     -102.764229      -31.929115
 C         -36.477562     -102.649628      -32.943329
 C         -37.463921     -103.073456      -30.509111
 C         -35.207588     -102.253807      -32.320457
 C         -36.264568     -102.271332      -30.127190
 C         -35.021088     -102.636604      -30.937634
 H         -36.826691     -101.869476      -33.650105
 H         -36.481663     -103.576416      -33.491322
 H         -38.400146     -102.970009      -30.010950
 H         -37.112328     -104.204765      -30.432766
 H         -35.062958     -101.251648      -32.415222
 H         -34.469654     -102.773712      -32.897034
 H         -35.999069     -102.401581      -29.038084
 H         -36.580891     -101.259636      -30.214754
 H         -34.128624     -102.067017      -30.599085
 H         -34.866299     -103.695580      -30.912039
