20
 generated by VMD
 C         -59.891998     -156.851273      -56.352352
 N         -60.995510     -156.395935      -56.421135
 H         -59.843914     -157.377762      -53.229111
 H         -58.914158     -157.380386      -56.384029
 C         -58.909317     -157.883301      -52.822910
 C         -57.750378     -157.088654      -52.309498
 C         -58.851265     -159.372971      -52.488663
 C         -57.309166     -157.318222      -50.910202
 C         -58.397793     -159.679459      -50.999893
 C         -57.160362     -158.828323      -50.667019
 H         -57.701420     -155.994019      -52.464996
 H         -56.979843     -157.524643      -52.992573
 H         -59.781784     -159.938416      -52.526180
 H         -58.186756     -159.720459      -53.225624
 H         -58.087353     -156.922119      -50.327152
 H         -56.378952     -156.843491      -50.773216
 H         -58.146309     -160.780853      -50.907394
 H         -59.360252     -159.411591      -50.348709
 H         -57.037022     -158.940552      -49.598644
 H         -56.273525     -159.262207      -51.103779
