20
 generated by VMD
 C         -66.243706     -189.677490      -66.742027
 N         -66.307983     -189.185349      -67.789833
 H         -69.872223     -190.195801      -65.142357
 H         -66.080849     -189.943237      -65.703049
 C         -70.688011     -189.823227      -64.488747
 C         -71.879608     -190.670303      -64.084885
 C         -70.458771     -188.592041      -63.708679
 C         -73.189568     -189.876495      -63.763870
 C         -71.771057     -187.801895      -63.834187
 C         -72.991211     -188.490005      -63.120239
 H         -71.499153     -191.290451      -63.245014
 H         -72.084244     -191.388245      -64.968613
 H         -70.081284     -188.793320      -62.689819
 H         -69.544373     -188.068375      -64.153275
 H         -73.863983     -190.503845      -63.097534
 H         -73.660645     -189.682175      -64.706566
 H         -71.999825     -187.597061      -64.872391
 H         -71.515411     -186.762680      -63.505505
 H         -72.712975     -188.673691      -62.113129
 H         -73.940002     -187.800201      -63.156902
