20
 generated by VMD
 C         -47.410145     -139.095551      -45.718182
 N         -46.802135     -138.675598      -46.551998
 H         -50.807240     -139.022308      -44.529728
 H         -47.896439     -139.748230      -44.993355
 C         -51.718739     -138.861053      -45.093571
 C         -51.809971     -139.225967      -46.638809
 C         -53.006138     -138.455475      -44.430752
 C         -52.989189     -140.135712      -46.882339
 C         -54.094532     -139.523193      -44.671684
 C         -54.295135     -139.787140      -46.162743
 H         -50.875561     -139.535049      -46.975307
 H         -52.137299     -138.350281      -47.225430
 H         -52.829105     -138.355911      -43.362873
 H         -53.347691     -137.512161      -44.833763
 H         -52.677593     -141.162842      -46.537971
 H         -53.199490     -140.283707      -47.988155
 H         -54.955654     -138.965424      -44.211544
 H         -53.997158     -140.445389      -44.256512
 H         -54.941433     -140.676834      -46.272354
 H         -54.679070     -138.762558      -46.688816
