20
 generated by VMD
 C         -59.937622     -152.390381      -51.033077
 N         -60.803837     -153.058548      -51.348927
 H         -56.829193     -152.480988      -48.853458
 H         -59.159061     -151.760773      -50.729908
 C         -56.004528     -152.050705      -49.425926
 C         -54.692074     -152.683884      -49.522827
 C         -56.037178     -150.569916      -49.681583
 C         -53.973125     -152.296936      -50.878159
 C         -55.236012     -149.989395      -50.945923
 C         -53.861156     -150.747879      -51.068699
 H         -54.849899     -153.766342      -49.421638
 H         -54.037159     -152.463272      -48.697025
 H         -57.111237     -150.240067      -49.739597
 H         -55.506390     -150.042236      -48.872101
 H         -54.657955     -152.611191      -51.679893
 H         -53.123779     -152.934418      -51.115726
 H         -54.999916     -149.000305      -50.697018
 H         -55.690578     -150.102463      -51.953392
 H         -53.185055     -150.536133      -51.815353
 H         -53.308311     -150.512924      -50.095543
