20
 generated by VMD
 C         -21.576653      -65.538055      -17.143877
 N         -20.819836      -65.887085      -16.321758
 H         -23.978153      -63.814373      -17.881817
 H         -22.108555      -64.955437      -17.885252
 C         -24.346098      -64.727112      -18.217846
 C         -24.560709      -65.143639      -19.643288
 C         -25.184204      -65.544434      -17.357464
 C         -24.311754      -66.635162      -19.797377
 C         -24.885773      -67.048141      -17.431067
 C         -25.167446      -67.458954      -18.875650
 H         -23.866783      -64.576355      -20.427410
 H         -25.580978      -64.780823      -19.814337
 H         -25.142223      -65.190140      -16.402843
 H         -26.202150      -65.440742      -17.642958
 H         -23.268635      -66.905899      -19.527880
 H         -24.413160      -67.011368      -20.827213
 H         -25.474939      -67.529922      -16.636887
 H         -23.805983      -67.293869      -17.250864
 H         -24.794113      -68.491844      -19.067257
 H         -26.232944      -67.389847      -19.220871
