20
 generated by VMD
 C         -56.110191     -149.277985      -45.890873
 N         -55.919483     -150.276566      -45.281780
 H         -53.852608     -148.071823      -47.903683
 H         -56.188080     -148.292725      -46.401421
 C         -53.961861     -147.389511      -48.779636
 C         -53.088547     -147.445724      -49.861324
 C         -54.784920     -146.154221      -48.585079
 C         -53.632759     -146.971924      -51.114143
 C         -55.285404     -145.526413      -49.913368
 C         -54.140823     -145.563705      -50.881748
 H         -52.931404     -148.446487      -50.091705
 H         -52.128513     -147.075104      -49.556850
 H         -55.598137     -146.403351      -47.974312
 H         -54.303944     -145.432434      -47.971436
 H         -54.489967     -147.532867      -51.482544
 H         -52.940411     -147.040298      -51.884182
 H         -55.414703     -144.499695      -49.607719
 H         -56.288303     -145.932724      -50.306816
 H         -54.612129     -145.044846      -51.750164
 H         -53.307602     -144.937927      -50.552689
