20
 generated by VMD
 C         -50.681126     -129.017654      -42.522640
 N         -51.145920     -128.149094      -41.884586
 H         -48.180973     -128.149826      -40.654465
 H         -50.043808     -129.652298      -43.135204
 C         -47.257561     -127.679977      -40.871361
 C         -46.015854     -128.171997      -40.100773
 C         -47.063465     -126.174988      -41.129066
 C         -44.747746     -128.005234      -40.901588
 C         -45.739487     -125.869690      -41.924183
 C         -44.504673     -126.539955      -41.268288
 H         -46.128925     -129.264816      -39.767941
 H         -45.992558     -127.641693      -39.171253
 H         -48.032585     -126.024994      -41.710899
 H         -47.031548     -125.640800      -40.180328
 H         -44.914219     -128.546951      -41.897594
 H         -43.828625     -128.285736      -40.239449
 H         -45.534801     -124.813118      -42.033615
 H         -45.834835     -126.318741      -42.927734
 H         -43.635746     -126.624336      -41.923084
 H         -44.148388     -125.969376      -40.359104
