20
 generated by VMD
 C         -22.426748      -67.700600      -16.204672
 N         -21.298851      -67.622993      -15.939018
 H         -23.888109      -65.757660      -18.048815
 H         -23.436302      -67.770027      -16.588789
 C         -24.501680      -66.413216      -18.661936
 C         -23.866262      -66.866425      -19.989330
 C         -26.036388      -66.502960      -18.556419
 C         -24.406200      -68.265900      -20.411283
 C         -26.581312      -67.886703      -18.960684
 C         -26.019955      -68.216354      -20.284119
 H         -22.733156      -67.095345      -19.970352
 H         -24.065205      -66.131889      -20.782396
 H         -26.226891      -66.397537      -17.538277
 H         -26.497507      -65.787804      -19.271202
 H         -24.085726      -69.098198      -19.771145
 H         -24.189632      -68.552078      -21.504604
 H         -27.659605      -67.740166      -18.919847
 H         -26.364283      -68.573044      -18.098001
 H         -26.460392      -69.150047      -20.649450
 H         -26.450354      -67.536148      -21.068281
