20
 generated by VMD
 C         -19.888403      -59.998062      -17.677843
 N         -19.533484      -58.978302      -18.098076
 H         -22.779888      -59.771179      -16.074970
 H         -20.317808      -61.095699      -17.519823
 C         -23.029972      -60.780251      -15.938621
 C         -23.159227      -61.563568      -17.264057
 C         -23.231136      -61.501423      -14.672304
 C         -22.872862      -63.058544      -17.310961
 C         -22.631672      -62.971859      -14.700429
 C         -23.232313      -63.697792      -15.992410
 H         -22.415215      -61.182217      -17.879854
 H         -24.182211      -61.451721      -17.570520
 H         -22.546757      -60.886402      -14.115962
 H         -24.243521      -61.557892      -14.314662
 H         -21.822582      -63.258305      -17.657064
 H         -23.500866      -63.465988      -18.146967
 H         -22.895147      -63.526810      -13.806704
 H         -21.561960      -62.952755      -14.781069
 H         -22.902613      -64.744003      -15.870313
 H         -24.288277      -63.608547      -15.870013
