20
 generated by VMD
 C         -60.365894     -170.275085      -55.122215
 N         -59.247314     -170.298965      -55.400978
 H         -63.199337     -170.520203      -56.455261
 H         -61.393127     -170.225876      -54.749184
 C         -63.374332     -169.596603      -56.934013
 C         -62.386791     -169.017838      -57.914818
 C         -64.397560     -168.814804      -56.225285
 C         -62.980598     -167.883240      -58.797417
 C         -65.058815     -167.671021      -57.122246
 C         -63.905396     -166.973419      -57.926521
 H         -61.831791     -169.779861      -58.459991
 H         -61.661732     -168.472824      -57.210579
 H         -65.140396     -169.316071      -55.797424
 H         -63.874466     -168.346024      -55.394367
 H         -63.413136     -168.534225      -59.580788
 H         -62.169876     -167.284500      -59.274712
 H         -65.555359     -167.016571      -56.413174
 H         -65.823296     -168.011749      -57.689083
 H         -64.391502     -166.169510      -58.583340
 H         -63.236568     -166.540817      -57.178814
