20
 generated by VMD
 C         -31.033108      -78.380280      -26.191267
 N         -31.635895      -77.546684      -25.616251
 H         -29.346931      -77.536285      -22.769167
 H         -30.515600      -78.920944      -27.055191
 C         -28.774063      -78.464256      -22.718229
 C         -27.344704      -78.641029      -23.050562
 C         -29.622618      -79.580795      -22.079817
 C         -26.629993      -79.685905      -22.178877
 C         -28.831751      -80.671127      -21.378929
 C         -27.429958      -80.895531      -21.914291
 H         -26.814529      -77.708015      -22.704254
 H         -27.207325      -78.966774      -24.117548
 H         -30.240625      -79.156914      -21.296297
 H         -30.276632      -80.118492      -22.756779
 H         -26.215704      -79.353584      -21.226170
 H         -25.675961      -79.762695      -22.774885
 H         -29.399305      -81.574570      -21.283930
 H         -28.726177      -80.391174      -20.282969
 H         -26.858997      -81.539055      -21.219797
 H         -27.559448      -81.558273      -22.894905
