20
 generated by VMD
 C         -11.570096      -27.564430       -1.536221
 N         -12.037128      -26.560860       -1.683425
 H         -10.461927      -25.787237       -4.299943
 H          -9.068858      -25.655485       -5.370441
 C          -9.384026      -26.013237       -4.359806
 C          -9.005596      -27.490938       -4.175003
 C          -8.730862      -25.163935       -3.285169
 C          -7.521404      -27.792883       -4.061785
 C          -7.186137      -25.379431       -3.279817
 C          -6.762335      -26.836102       -3.149296
 H          -9.398550      -28.143141       -5.000963
 H          -9.578705      -27.887671       -3.353547
 H          -8.966122      -24.102266       -3.535190
 H          -9.086838      -25.294973       -2.288917
 H          -6.981854      -27.774801       -5.057117
 H          -7.319272      -28.847946       -3.789536
 H          -6.741676      -24.651295       -2.569726
 H          -6.801521      -25.001047       -4.243003
 H          -5.674911      -26.934475       -3.296936
 H          -6.903322      -27.215179       -2.139997
