20
 generated by VMD
 C         -30.131243      -89.537941      -25.807983
 N         -29.220823      -90.264687      -25.964333
 H         -32.368656      -91.192749      -26.393444
 H         -31.125511      -88.978233      -25.597652
 C         -32.919891      -90.756104      -27.221426
 C         -34.282761      -91.334435      -27.286160
 C         -32.506420      -89.538361      -28.014990
 C         -35.220379      -90.093369      -26.943556
 C         -33.536640      -88.408897      -27.819746
 C         -35.020554      -88.886864      -27.814064
 H         -34.365780      -92.091835      -26.519596
 H         -34.454407      -91.651283      -28.351618
 H         -31.451414      -89.224388      -27.805037
 H         -32.539482      -89.867371      -29.106319
 H         -35.054714      -89.856499      -25.843163
 H         -36.264694      -90.374077      -26.899372
 H         -33.338608      -87.635422      -28.551935
 H         -33.458061      -87.986618      -26.827347
 H         -35.549961      -87.978798      -27.497915
 H         -35.187733      -89.115654      -28.974058
