20
 generated by VMD
 C         -12.351423      -32.158279       -8.661717
 N         -12.706841      -31.135212       -8.904286
 H         -10.518439      -34.584068       -7.334886
 H         -11.301929      -33.585426       -6.223534
 C         -11.103724      -34.628117       -6.457227
 C         -10.405781      -35.326958       -5.288952
 C         -12.384472      -35.415462       -6.782640
 C         -11.238753      -35.516270       -4.059726
 C         -13.276226      -35.611061       -5.603182
 C         -12.503939      -36.271496       -4.472132
 H          -9.502983      -34.697811       -5.132730
 H          -9.955672      -36.233181       -5.622485
 H         -12.876025      -34.908524       -7.636777
 H         -12.118845      -36.396538       -7.244169
 H         -11.419622      -34.549187       -3.554270
 H         -10.714574      -36.089172       -3.212650
 H         -14.119851      -36.339478       -5.889154
 H         -13.816873      -34.760246       -5.216037
 H         -13.215053      -36.347286       -3.604269
 H         -12.207112      -37.280609       -4.758218
