20
 generated by VMD
 C         -12.994322      -28.702757       -5.866161
 N         -12.753479      -27.733500       -5.356449
 H         -11.484410      -31.109982       -3.362091
 H         -11.270834      -29.711119       -4.343631
 C         -10.707253      -30.491919       -3.845107
 C          -9.847185      -31.232954       -4.899253
 C          -9.956350      -29.814514       -2.693325
 C          -8.662781      -30.278704       -5.370379
 C          -8.729462      -29.028625       -3.103063
 C          -7.835188      -29.806601       -4.150083
 H         -10.470428      -31.561247       -5.685532
 H          -9.434121      -32.233467       -4.499757
 H         -10.693672      -29.147356       -2.222252
 H          -9.753627      -30.552635       -1.956828
 H          -9.044083      -29.393826       -5.920273
 H          -8.083656      -30.732553       -6.173402
 H          -8.167112      -28.794107       -2.225458
 H          -9.007963      -28.039522       -3.577204
 H          -7.006648      -29.082834       -4.526882
 H          -7.212498      -30.481356       -3.589683
