20
 generated by VMD
 C         -49.747547     -141.535461      -45.428116
 N         -49.577431     -142.596680      -45.094109
 H         -51.648029     -138.855301      -46.120949
 H         -49.888168     -140.526413      -45.827202
 C         -52.230263     -139.676590      -46.374767
 C         -52.506195     -139.862427      -47.915829
 C         -53.080845     -140.373672      -45.413940
 C         -53.106186     -141.284470      -48.291870
 C         -53.594269     -141.781937      -45.870777
 C         -54.098644     -141.761658      -47.276695
 H         -51.674881     -139.716858      -48.616543
 H         -53.286880     -139.096832      -48.151527
 H         -52.483067     -140.489838      -44.506409
 H         -54.045570     -139.869324      -45.409275
 H         -52.237274     -142.043793      -48.442421
 H         -53.646339     -141.187714      -49.328449
 H         -54.212887     -142.201660      -45.137108
 H         -52.712379     -142.440475      -45.948074
 H         -54.355797     -142.806946      -47.727974
 H         -54.978081     -141.053696      -47.364861
