20
 generated by VMD
 C         -58.273762     -167.454483      -55.421612
 N         -57.250851     -167.870636      -55.055397
 H         -61.089855     -166.373398      -55.103508
 H         -59.233929     -166.989456      -55.717331
 C         -61.703964     -166.068390      -55.929626
 C         -62.201698     -166.937180      -57.076496
 C         -62.698528     -164.888382      -55.643238
 C         -63.705257     -167.439987      -57.034725
 C         -64.203712     -165.310577      -55.598698
 C         -64.575386     -166.200745      -56.786938
 H         -61.484386     -167.865295      -57.116310
 H         -61.789639     -166.395004      -57.968349
 H         -62.382568     -164.467987      -54.696098
 H         -62.543068     -164.039383      -56.442429
 H         -63.962685     -168.034134      -56.099239
 H         -64.054131     -167.954880      -57.951874
 H         -64.817917     -164.414383      -55.514206
 H         -64.334404     -165.789261      -54.539795
 H         -65.611198     -166.408966      -56.657635
 H         -64.659409     -165.557083      -57.604572
