20
 generated by VMD
 C         -59.231647     -158.709869      -57.337780
 N         -58.637627     -158.180740      -58.261219
 H         -59.746120     -158.933090      -53.792580
 H         -59.804150     -159.205017      -56.560390
 C         -59.622086     -159.928284      -53.460934
 C         -58.415695     -160.122849      -52.649448
 C         -60.612530     -161.042358      -53.583736
 C         -58.907772     -160.616898      -51.272907
 C         -60.990753     -161.789444      -52.261826
 C         -59.732792     -161.860718      -51.314777
 H         -57.904701     -159.221237      -52.461311
 H         -57.829212     -160.751465      -53.246964
 H         -61.538368     -160.622070      -53.934406
 H         -60.183548     -161.705948      -54.445301
 H         -59.555458     -159.820847      -50.807522
 H         -57.906097     -160.815826      -50.697063
 H         -61.261848     -162.857147      -52.525600
 H         -61.876102     -161.304535      -51.717812
 H         -60.034683     -162.085693      -50.300549
 H         -59.133205     -162.627457      -51.668221
