20
 generated by VMD
 C         -50.833775     -129.654861      -46.013222
 N         -50.870777     -130.431335      -45.207809
 H         -47.790905     -131.433716      -44.221039
 H         -50.822128     -129.135361      -46.935940
 C         -48.001240     -131.519043      -43.210800
 C         -48.303406     -132.748749      -42.402737
 C         -47.921989     -130.175735      -42.471802
 C         -47.511059     -132.830307      -41.140709
 C         -47.183617     -130.312653      -41.156258
 C         -47.579201     -131.586319      -40.392929
 H         -48.107365     -133.758331      -42.917881
 H         -49.391174     -132.814362      -42.171104
 H         -47.413246     -129.418518      -43.128731
 H         -49.065510     -129.933365      -42.382904
 H         -46.498142     -133.079651      -41.472591
 H         -47.858002     -133.647324      -40.496826
 H         -47.389027     -129.371429      -40.532196
 H         -46.082729     -130.323074      -41.413216
 H         -46.933979     -131.496628      -39.591236
 H         -48.568733     -131.355652      -39.982071
