20
 generated by VMD
 C         -59.736679     -157.412186      -56.707203
 N         -60.750538     -157.130280      -57.081944
 H         -59.797501     -157.126053      -53.080494
 H         -58.806145     -157.671646      -56.212669
 C         -59.135880     -157.862076      -52.631714
 C         -57.962734     -157.321823      -51.941936
 C         -59.438183     -159.349106      -52.570309
 C         -57.415447     -158.206558      -50.780586
 C         -58.791431     -160.153732      -51.482319
 C         -57.384296     -159.643646      -51.192085
 H         -58.234379     -156.481873      -51.451992
 H         -57.118958     -157.112808      -52.563148
 H         -60.563793     -159.335098      -52.708839
 H         -59.080173     -159.849319      -53.446640
 H         -58.090946     -158.187271      -49.944469
 H         -56.427147     -157.878052      -50.626694
 H         -58.883011     -161.183578      -51.678986
 H         -59.264065     -159.925293      -50.565975
 H         -56.952095     -160.229874      -50.286617
 H         -56.697090     -159.814224      -51.929878
