20
 generated by VMD
 C         -78.488464     -209.753769      -77.342506
 N         -79.060112     -209.023361      -76.627045
 H         -78.349442     -210.540070      -73.681335
 H         -77.962303     -210.353043      -78.028702
 C         -78.525368     -211.088882      -72.812012
 C         -77.431274     -211.524597      -71.847992
 C         -79.700661     -211.977982      -73.003502
 C         -78.007713     -211.894547      -70.401321
 C         -80.257622     -212.507843      -71.659363
 C         -79.152496     -212.972778      -70.661491
 H         -76.769257     -210.620682      -71.735550
 H         -76.906258     -212.407379      -72.281181
 H         -80.520714     -211.483826      -73.514091
 H         -79.386246     -212.852371      -73.689468
 H         -78.429993     -210.953506      -69.907318
 H         -77.210167     -212.352829      -69.781487
 H         -81.027489     -213.333878      -71.854065
 H         -80.944969     -211.767044      -71.271515
 H         -79.654747     -213.357773      -69.719986
 H         -78.707359     -213.868851      -71.062607
