20
 generated by VMD
 C         -49.920841     -131.548294      -46.636703
 N         -50.248398     -131.791809      -47.762115
 H         -48.318199     -132.120468      -43.983913
 H         -49.854568     -131.232330      -45.597576
 C         -49.061192     -132.198685      -43.175583
 C         -49.646179     -133.622604      -43.320087
 C         -48.712780     -131.773209      -41.696625
 C         -48.940315     -134.627151      -42.525257
 C         -47.989075     -132.861710      -40.973557
 C         -48.742207     -134.176926      -41.061932
 H         -49.663681     -133.843048      -44.445393
 H         -50.635845     -133.404434      -43.001362
 H         -48.212357     -130.795837      -41.766720
 H         -49.621277     -131.442627      -41.181835
 H         -47.943478     -134.697693      -43.032761
 H         -49.395687     -135.644547      -42.617176
 H         -47.731773     -132.559952      -39.876629
 H         -46.925243     -133.113419      -41.368523
 H         -48.247089     -134.985977      -40.622280
 H         -49.806252     -133.970367      -40.645973
