20
 generated by VMD
 C         -79.564575     -205.385834      -71.037018
 N         -80.272964     -206.256805      -71.433853
 H         -77.296143     -203.132675      -70.235741
 H         -78.967216     -204.526718      -70.718719
 C         -76.250053     -203.335541      -70.216408
 C         -75.244019     -202.220306      -70.476448
 C         -75.867165     -204.754349      -70.019203
 C         -73.821732     -202.666473      -70.517830
 C         -74.680153     -204.881485      -69.135521
 C         -73.499916     -203.946274      -69.603806
 H         -75.442436     -201.511490      -69.708984
 H         -75.461388     -201.768112      -71.480095
 H         -76.704994     -205.211136      -69.571655
 H         -75.593719     -205.156754      -70.934265
 H         -73.178337     -201.818466      -70.202713
 H         -73.440376     -202.920853      -71.553185
 H         -74.447350     -206.014908      -69.145119
 H         -74.892220     -204.562820      -68.129288
 H         -72.831696     -203.820633      -68.677574
 H         -72.947868     -204.582214      -70.319527
