20
 generated by VMD
 C         -22.409317      -67.652840      -16.194189
 N         -21.264833      -67.528488      -15.990273
 H         -24.223724      -65.478928      -18.243528
 H         -23.469593      -67.729408      -16.254797
 C         -24.442102      -66.446259      -18.640387
 C         -23.877914      -66.870613      -19.868975
 C         -25.961657      -66.492744      -18.565779
 C         -24.535461      -68.102516      -20.405954
 C         -26.486517      -67.859512      -18.892851
 C         -26.022978      -68.230576      -20.332626
 H         -22.738846      -67.134384      -19.806923
 H         -24.126425      -66.183929      -20.636244
 H         -26.289047      -66.039772      -17.617323
 H         -26.224787      -65.872414      -19.400766
 H         -24.065735      -68.904480      -19.855202
 H         -24.272282      -68.287079      -21.416962
 H         -27.606337      -67.971054      -18.855970
 H         -26.137304      -68.507881      -18.077730
 H         -26.499186      -69.172539      -20.595324
 H         -26.425339      -67.542183      -21.063894
