20
 generated by VMD
 C         -23.214083      -54.571518      -14.948471
 N         -23.760300      -53.881203      -15.716413
 H         -20.257647      -54.634247      -15.351342
 H         -22.494577      -55.274208      -14.445668
 C         -19.693581      -55.340424      -14.744627
 C         -19.136862      -54.630226      -13.427965
 C         -18.990448      -56.545822      -15.272175
 C         -18.501757      -55.577419      -12.404966
 C         -18.751120      -57.385109      -14.020224
 C         -17.793427      -56.671844      -13.073565
 H         -20.010805      -54.115261      -12.892682
 H         -18.306873      -53.914104      -13.772188
 H         -19.674263      -56.977604      -15.981147
 H         -17.944956      -56.253105      -15.641840
 H         -19.252527      -55.910374      -11.698105
 H         -17.819441      -55.015125      -11.703518
 H         -18.292313      -58.314053      -14.255577
 H         -19.726320      -57.636284      -13.539207
 H         -17.354969      -57.311527      -12.319624
 H         -16.852995      -56.312714      -13.526107
