20
 generated by VMD
 C         -58.280918     -150.997406      -49.214523
 N         -58.396751     -151.997040      -48.661613
 H         -55.768864     -149.707947      -47.760036
 H         -58.027859     -150.025345      -49.635818
 C         -55.243134     -149.532074      -48.692574
 C         -54.328136     -150.420532      -49.430851
 C         -55.035286     -148.047104      -48.983723
 C         -54.198112     -150.029495      -50.927860
 C         -54.866718     -147.651764      -50.434330
 C         -53.796478     -148.503754      -51.093842
 H         -54.516964     -151.525757      -49.393501
 H         -53.318138     -150.198654      -49.040985
 H         -55.957691     -147.662872      -48.611248
 H         -54.163754     -147.739670      -48.469345
 H         -55.127728     -150.097092      -51.500965
 H         -53.502731     -150.721603      -51.379044
 H         -54.764225     -146.475464      -50.328827
 H         -55.723972     -147.665253      -51.050835
 H         -53.637444     -148.260666      -52.143448
 H         -52.802959     -148.421066      -50.627029
