20
 generated by VMD
 C          -2.690038      -17.958721        2.708755
 N          -2.118575      -17.265213        2.047606
 H          -5.383378      -18.430557        1.055591
 H          -5.145357      -19.562828       -0.212363
 C          -5.802726      -18.769842        0.099399
 C          -5.790486      -17.618687       -0.848890
 C          -7.227383      -19.330736        0.383403
 C          -6.577322      -17.809252       -2.140953
 C          -8.090644      -19.517048       -0.898215
 C          -8.042883      -18.213387       -1.769075
 H          -4.755562      -17.295063       -1.205014
 H          -6.221043      -16.758038       -0.385942
 H          -7.199248      -20.229542        0.978819
 H          -7.669927      -18.609364        0.993379
 H          -6.091376      -18.579536       -2.704253
 H          -6.553952      -16.931807       -2.705554
 H          -9.132141      -19.683290       -0.492164
 H          -7.823006      -20.385197       -1.518743
 H          -8.535558      -18.478178       -2.693359
 H          -8.620283      -17.349964       -1.381544
