20
 generated by VMD
 C         -11.795477      -41.538387       -6.253091
 N         -10.870725      -41.998741       -6.673207
 H         -14.621534      -41.523232       -8.403237
 H         -15.346655      -40.765171       -9.734198
 C         -15.309934      -41.805264       -9.209980
 C         -16.684015      -42.333878       -8.736971
 C         -14.653178      -42.846493      -10.198843
 C         -17.568287      -42.464268       -9.982925
 C         -15.566966      -43.205425      -11.344974
 C         -16.973070      -43.515343      -10.962172
 H         -17.135351      -41.546028       -8.122087
 H         -16.597235      -43.325008       -8.257693
 H         -13.744073      -42.447834      -10.552738
 H         -14.455195      -43.730709       -9.619772
 H         -17.599962      -41.582218      -10.598120
 H         -18.590956      -42.671898       -9.657801
 H         -15.121327      -44.019123      -12.049274
 H         -15.567722      -42.347561      -11.959373
 H         -17.626013      -43.576107      -11.854554
 H         -17.010050      -44.537594      -10.548505
