20
 generated by VMD
 C          -3.515795      -19.416798        2.831429
 N          -3.480338      -18.346165        3.150140
 H          -5.450716      -20.371098        0.195839
 H          -6.321799      -21.333540       -1.074295
 C          -6.179187      -20.323442       -0.671036
 C          -5.629017      -19.398832       -1.775383
 C          -7.535250      -19.816380       -0.155117
 C          -6.596246      -19.015783       -2.895118
 C          -8.505830      -19.522400       -1.369298
 C          -7.916422      -18.528893       -2.407147
 H          -4.713444      -19.765902       -2.194241
 H          -5.419642      -18.444969       -1.154477
 H          -8.041985      -20.537907        0.524897
 H          -7.334936      -18.848671        0.283196
 H          -6.849367      -19.880680       -3.500991
 H          -6.120585      -18.233419       -3.525131
 H          -9.435333      -19.094717       -1.007511
 H          -8.759997      -20.454075       -1.911940
 H          -8.587257      -18.435387       -3.300190
 H          -7.801780      -17.563763       -1.876917
