20
 generated by VMD
 C         -33.659863      -96.318542      -25.240154
 N         -32.870914      -97.102562      -25.007801
 H         -34.758400      -93.649490      -27.357035
 H         -34.431114      -95.516777      -25.570337
 C         -34.844997      -93.386047      -28.381565
 C         -35.992222      -93.961067      -29.213226
 C         -33.585823      -93.295128      -29.197029
 C         -36.165920      -93.126198      -30.472660
 C         -33.754646      -92.620995      -30.565390
 C         -34.987831      -92.992714      -31.342329
 H         -36.922165      -93.958435      -28.719345
 H         -35.682865      -94.992210      -29.372938
 H         -32.809082      -92.826790      -28.649044
 H         -33.210163      -94.299789      -29.433044
 H         -36.532955      -92.151627      -30.028978
 H         -37.012310      -93.385315      -31.067949
 H         -32.816261      -92.756943      -31.060570
 H         -33.873158      -91.541794      -30.464264
 H         -35.049397      -92.007889      -32.086300
 H         -34.861469      -93.889786      -31.989098
