20
 generated by VMD
 C          -1.384693      -10.481319        1.252527
 N          -0.849398      -11.410697        1.452170
 H          -3.909001      -13.227323       -0.052383
 H          -5.245243      -12.807747        1.029123
 C          -4.521728      -13.586010        0.768586
 C          -3.801185      -13.816490        2.067046
 C          -5.424432      -14.746062        0.282316
 C          -4.712789      -14.494917        3.134489
 C          -6.342435      -15.231797        1.379304
 C          -5.541465      -15.698344        2.576399
 H          -3.462184      -12.892888        2.499897
 H          -2.990132      -14.514110        1.937918
 H          -5.963828      -14.352398       -0.617751
 H          -4.705348      -15.587163       -0.063543
 H          -5.453446      -13.849651        3.591641
 H          -4.089888      -14.935043        3.891055
 H          -6.813734      -16.152849        1.049207
 H          -7.076786      -14.532269        1.716783
 H          -6.245588      -16.046124        3.399074
 H          -4.838963      -16.554171        2.344016
