20
 generated by VMD
 C         -75.815117     -202.468414      -66.320663
 N         -76.680771     -202.895645      -65.654060
 H         -75.541206     -200.352951      -68.630516
 H         -75.173157     -202.109940      -67.140480
 C         -74.895111     -199.622284      -69.068169
 C         -74.817200     -198.282990      -68.481857
 C         -73.944305     -200.010193      -70.091370
 C         -73.423737     -197.574493      -68.446007
 C         -73.195084     -198.845825      -70.677200
 C         -72.674171     -197.796982      -69.814468
 H         -75.129860     -198.489517      -67.431908
 H         -75.497917     -197.674393      -68.893578
 H         -73.191452     -200.700226      -69.732773
 H         -74.453339     -200.561386      -70.796227
 H         -72.772713     -198.113617      -67.719086
 H         -73.559456     -196.452652      -68.301491
 H         -73.928627     -198.494385      -71.356644
 H         -72.407318     -199.127533      -71.397438
 H         -71.526306     -198.076675      -69.583778
 H         -72.685310     -196.944839      -70.418442
