20
 generated by VMD
 C         -47.608612     -136.657761      -45.954510
 N         -46.989708     -136.164551      -46.738861
 H         -51.013000     -135.516174      -45.705700
 H         -48.042488     -137.104126      -45.096504
 C         -51.311787     -136.487518      -45.206059
 C         -51.968979     -137.544235      -46.118454
 C         -51.999454     -136.389633      -43.907246
 C         -52.052185     -138.882614      -45.443668
 C         -51.925507     -137.820755      -43.237705
 C         -52.699131     -138.769699      -44.034775
 H         -51.330112     -137.447556      -47.058548
 H         -53.012466     -137.265930      -46.291550
 H         -51.323521     -135.777145      -43.286476
 H         -52.975861     -135.986267      -44.041176
 H         -50.999435     -139.143082      -45.380726
 H         -52.410484     -139.813065      -45.985764
 H         -52.477020     -137.705231      -42.236149
 H         -50.994911     -138.231827      -42.895786
 H         -52.595726     -139.761032      -43.678986
 H         -53.794155     -138.592026      -44.178139
