20
 generated by VMD
 C         -49.490185     -133.012512      -46.874619
 N         -48.436188     -132.942032      -47.483467
 H         -48.197617     -134.503418      -43.935150
 H         -50.346066     -133.426071      -46.285065
 C         -49.279991     -134.800980      -43.923347
 C         -49.526676     -136.277069      -44.336048
 C         -50.276993     -134.038742      -43.201805
 C         -50.162766     -137.053467      -43.174282
 C         -50.843903     -134.882339      -41.973576
 C         -51.303219     -136.242767      -42.439350
 H         -48.708038     -136.808823      -44.735855
 H         -50.356243     -136.313721      -45.083107
 H         -49.933907     -133.163071      -42.814404
 H         -51.098904     -133.819931      -43.893860
 H         -49.343136     -137.097534      -42.436081
 H         -50.453873     -138.080841      -43.444881
 H         -51.632206     -134.122925      -41.615425
 H         -50.060509     -134.900940      -41.157917
 H         -51.648224     -136.842819      -41.648949
 H         -52.133144     -135.993362      -43.199688
