20
 generated by VMD
 C         -60.242641     -170.709457      -55.223831
 N         -59.208488     -171.320663      -55.225899
 H         -63.457291     -170.628616      -57.106892
 H         -61.202541     -170.226227      -55.135540
 C         -63.420238     -169.605179      -56.878086
 C         -62.379444     -168.764297      -57.555279
 C         -64.607903     -168.918976      -56.508888
 C         -62.960743     -167.914978      -58.715260
 C         -65.285500     -168.047760      -57.601460
 C         -64.290421     -167.216248      -58.358917
 H         -61.515713     -169.455109      -57.876106
 H         -61.909267     -168.100082      -56.928207
 H         -65.356461     -169.697479      -56.031136
 H         -64.440041     -168.208633      -55.681591
 H         -62.965343     -168.565308      -59.604664
 H         -62.120213     -167.136353      -58.870266
 H         -66.052315     -167.452942      -57.217026
 H         -65.840492     -168.684082      -58.255611
 H         -64.682716     -166.884659      -59.282204
 H         -64.181099     -166.289413      -57.741257
