20
 generated by VMD
 C         -29.334497      -90.282593      -25.057320
 N         -29.037035      -91.396072      -25.295612
 H         -32.456467      -90.982689      -26.795727
 H         -29.799906      -89.260643      -24.843346
 C         -33.170876      -90.732811      -27.594000
 C         -34.385765      -91.561874      -27.531494
 C         -33.062710      -89.734566      -28.672348
 C         -35.535130      -90.625389      -27.324644
 C         -34.104649      -88.654121      -28.313196
 C         -35.480045      -89.328598      -28.320700
 H         -34.293587      -92.274223      -26.693689
 H         -34.474529      -92.190041      -28.462278
 H         -32.038147      -89.321770      -28.760586
 H         -33.126999      -90.207909      -29.636192
 H         -35.711819      -90.123535      -26.333696
 H         -36.551559      -91.069214      -27.609512
 H         -33.944546      -87.933907      -29.130440
 H         -33.876949      -88.164543      -27.339655
 H         -36.193771      -88.551086      -27.980358
 H         -35.883266      -89.560104      -29.334812
