20
 generated by VMD
 C         -61.328411     -156.127655      -54.909424
 N         -60.437653     -155.892548      -55.692833
 H         -59.510582     -156.008850      -51.672367
 H         -62.205986     -156.393524      -54.351330
 C         -58.487682     -156.142303      -51.364170
 C         -57.790100     -154.936707      -50.784737
 C         -57.720768     -157.246292      -52.023186
 C         -56.293884     -155.406754      -50.281334
 C         -56.420155     -157.679276      -51.387508
 C         -55.616108     -156.405426      -51.247135
 H         -58.277348     -154.402954      -49.918690
 H         -57.822906     -154.222290      -51.586689
 H         -58.434055     -158.199982      -51.939106
 H         -57.649883     -156.974152      -53.094975
 H         -56.292431     -156.136063      -49.438305
 H         -55.734200     -154.425705      -50.088917
 H         -56.094646     -158.445908      -52.151016
 H         -56.624702     -158.151901      -50.439911
 H         -54.654507     -156.666428      -50.731358
 H         -55.421192     -155.897980      -52.215561
