20
 generated by VMD
 C         -22.148027      -52.966625      -12.530514
 N         -23.173227      -52.453976      -12.725712
 H         -20.260118      -54.083145      -13.965979
 H         -21.311544      -53.273933      -12.129157
 C         -19.346941      -53.732880      -13.621269
 C         -18.756149      -52.319828      -13.806431
 C         -18.358667      -54.859669      -13.490604
 C         -17.347395      -52.340885      -14.272960
 C         -17.226841      -54.359421      -12.643669
 C         -16.538197      -53.197262      -13.365413
 H         -18.740456      -51.860378      -12.810503
 H         -19.354300      -51.805515      -14.516346
 H         -18.739557      -55.751400      -13.040680
 H         -18.013561      -55.241463      -14.483628
 H         -16.941109      -51.339512      -14.398393
 H         -17.380871      -52.799591      -15.237808
 H         -16.590042      -55.147476      -12.422186
 H         -17.644754      -54.033463      -11.649732
 H         -16.053471      -52.561504      -12.587814
 H         -15.706135      -53.738640      -13.929207
