20
 generated by VMD
 C         -41.227959     -119.268242      -34.700089
 N         -40.362801     -119.322754      -35.457172
 H         -43.599209     -117.904823      -36.348751
 H         -41.994534     -119.421425      -33.879345
 C         -43.861305     -117.638329      -37.314831
 C         -43.039318     -117.826508      -38.499413
 C         -45.209518     -117.045288      -37.598053
 C         -43.805046     -118.477814      -39.651077
 C         -45.851562     -117.644844      -38.814934
 C         -44.997185     -117.681549      -40.100060
 H         -42.097969     -118.468071      -38.438690
 H         -42.839661     -116.708916      -38.754299
 H         -45.752945     -117.126480      -36.678677
 H         -45.115719     -115.994194      -37.721355
 H         -44.137936     -119.506851      -39.283272
 H         -43.275124     -118.668304      -40.607559
 H         -46.741886     -117.166389      -39.001148
 H         -46.352257     -118.563255      -38.475300
 H         -45.533073     -118.071747      -40.957687
 H         -44.724731     -116.711472      -40.451935
