20
 generated by VMD
 C         -47.898067     -134.595551      -46.744442
 N         -47.985298     -134.266190      -47.902557
 H         -50.350410     -134.432999      -44.898605
 H         -48.152473     -135.079987      -45.828571
 C         -50.564445     -135.307053      -44.377785
 C         -50.996754     -136.638199      -45.186264
 C         -51.120838     -135.147278      -42.954941
 C         -51.006737     -137.848663      -44.310116
 C         -51.144573     -136.445099      -42.155140
 C         -51.780388     -137.597733      -43.006657
 H         -50.244446     -136.742172      -45.992229
 H         -51.949791     -136.375671      -45.672810
 H         -50.346321     -134.381088      -42.556248
 H         -52.099976     -134.650406      -42.988911
 H         -50.017525     -138.057236      -43.914734
 H         -51.373024     -138.704834      -44.942551
 H         -51.801701     -136.391861      -41.319088
 H         -50.205334     -136.679718      -41.713615
 H         -51.831490     -138.486343      -42.300148
 H         -52.921768     -137.357819      -43.096733
