20
 generated by VMD
 C         -31.203474      -75.711586      -21.583672
 N         -32.166843      -75.226532      -21.194719
 H         -27.790691      -74.760094      -20.244411
 H         -30.107225      -76.108696      -21.687990
 C         -26.803345      -75.070374      -20.544460
 C         -26.399576      -76.247307      -21.313505
 C         -25.839611      -73.985916      -20.423916
 C         -25.998318      -75.799568      -22.726423
 C         -25.348913      -73.528450      -21.708261
 C         -24.934050      -74.733002      -22.613522
 H         -27.119097      -76.975899      -21.437452
 H         -25.538872      -76.664062      -20.753395
 H         -26.066792      -73.084213      -19.774828
 H         -25.033606      -74.365578      -19.849796
 H         -26.832066      -75.377930      -23.274492
 H         -25.643555      -76.673019      -23.247183
 H         -24.436535      -72.873306      -21.689335
 H         -26.263762      -73.092064      -22.196819
 H         -24.741802      -74.549637      -23.642708
 H         -24.010904      -75.150955      -22.201117
