20
 generated by VMD
 C         -79.464775     -206.781387      -74.682472
 N         -80.125252     -207.666809      -74.331642
 H         -77.030930     -207.350998      -73.154594
 H         -78.815109     -206.123978      -75.150078
 C         -76.865936     -207.812195      -72.204720
 C         -75.652138     -207.415802      -71.469093
 C         -77.749046     -208.908127      -71.648346
 C         -75.688385     -207.589081      -70.019089
 C         -78.038704     -208.567581      -70.185326
 C         -76.745552     -208.515854      -69.373619
 H         -75.779503     -206.347244      -71.671967
 H         -74.628990     -207.623352      -71.785980
 H         -78.588257     -208.865738      -72.282722
 H         -77.305801     -209.909698      -71.768501
 H         -75.778908     -206.558594      -69.527496
 H         -74.737976     -207.909424      -69.526054
 H         -78.735390     -209.250168      -69.750061
 H         -78.596909     -207.576263      -70.309128
 H         -76.941307     -208.276260      -68.289665
 H         -76.263168     -209.458878      -69.178856
