20
 generated by VMD
 C         -68.892609     -186.686874      -67.811592
 N         -68.041763     -187.424240      -67.534111
 H         -68.313828     -187.532578      -64.356903
 H         -69.690315     -186.023880      -68.236092
 C         -69.092361     -187.421936      -63.625973
 C         -68.917931     -187.636887      -62.177341
 C         -70.529808     -187.174652      -64.212555
 C         -70.129074     -188.508255      -61.560181
 C         -71.496704     -188.030075      -63.525288
 C         -71.490005     -187.884537      -62.056961
 H         -68.662430     -186.566849      -61.772251
 H         -68.035271     -188.255295      -61.863594
 H         -70.721100     -186.129303      -64.159401
 H         -70.602226     -187.248245      -65.335144
 H         -70.143959     -188.481903      -60.463490
 H         -70.105728     -189.558502      -61.937599
 H         -71.176460     -189.025955      -63.915009
 H         -72.528351     -187.810577      -63.860405
 H         -71.476089     -186.821671      -61.812950
 H         -72.232269     -188.347839      -61.533566
