20
 generated by VMD
 C         -60.961823     -154.748535      -51.328571
 N         -60.967297     -154.097000      -52.258797
 H         -57.443989     -153.898682      -52.986115
 H         -60.888783     -155.404877      -50.462608
 C         -56.703632     -153.702469      -52.227322
 C         -57.202293     -153.974564      -50.878357
 C         -55.488384     -152.845200      -52.443283
 C         -56.088531     -154.329636      -49.789845
 C         -54.395317     -153.362625      -51.470917
 C         -54.947952     -153.355835      -49.915989
 H         -57.966896     -154.673370      -50.847450
 H         -57.508450     -153.071335      -50.446407
 H         -55.228889     -153.002518      -53.542294
 H         -55.785149     -151.823059      -52.218594
 H         -55.722210     -155.396057      -49.902946
 H         -56.590725     -154.029861      -48.780586
 H         -53.527473     -152.687988      -51.421200
 H         -54.051304     -154.292969      -51.947124
 H         -54.232094     -153.631531      -49.177727
 H         -55.373074     -152.310272      -49.880077
