20
 generated by VMD
 C         -40.113022     -104.792038      -36.229740
 N         -39.451225     -104.334351      -37.074024
 H         -40.143867     -108.256920      -35.335594
 H         -40.568905     -105.304237      -35.402348
 C         -39.776005     -108.394409      -34.322498
 C         -38.826488     -107.372566      -33.759300
 C         -40.245182     -109.580551      -33.433300
 C         -38.988560     -107.201149      -32.224121
 C         -40.085064     -109.546349      -31.937407
 C         -38.994850     -108.485123      -31.558271
 H         -38.967613     -106.442360      -34.260731
 H         -37.882149     -107.785965      -33.897617
 H         -41.346245     -109.752563      -33.664593
 H         -39.679554     -110.377319      -33.883362
 H         -39.924519     -106.675667      -31.986851
 H         -38.145119     -106.516212      -31.883368
 H         -40.091717     -110.554741      -31.484562
 H         -41.011482     -109.207893      -31.484188
 H         -39.042194     -108.219063      -30.374891
 H         -37.989277     -108.857956      -31.651367
