20
 generated by VMD
 C         -30.825109      -77.899590      -25.576771
 N         -31.726841      -77.771111      -26.245392
 H         -29.270897      -78.231468      -22.814890
 H         -30.216726      -77.945839      -24.689596
 C         -28.917330      -79.177765      -23.269321
 C         -27.400095      -79.382690      -23.443434
 C         -29.774298      -80.396156      -22.662205
 C         -26.911777      -79.831123      -22.039476
 C         -29.092342      -80.854057      -21.360186
 C         -27.609350      -81.111450      -21.618013
 H         -26.956064      -78.389496      -23.635336
 H         -27.172182      -80.245552      -24.128962
 H         -30.738100      -79.990356      -22.544630
 H         -29.854326      -81.284706      -23.420828
 H         -26.897984      -79.128113      -21.229605
 H         -25.820761      -80.042549      -22.165100
 H         -29.689095      -81.812149      -21.143963
 H         -29.264450      -80.120697      -20.561745
 H         -27.104780      -81.456718      -20.718908
 H         -27.473049      -81.879166      -22.304779
