20
 generated by VMD
 C         -79.165550     -205.724701      -73.869911
 N         -79.169540     -206.901108      -73.612068
 H         -78.753448     -206.306229      -70.578827
 H         -79.071945     -204.686676      -73.942635
 C         -77.647575     -206.366013      -70.528175
 C         -76.751259     -205.501846      -71.326050
 C         -77.215294     -207.566788      -69.842224
 C         -75.318840     -205.340454      -70.807556
 C         -75.824104     -207.430267      -69.223549
 C         -74.871788     -206.760712      -70.227921
 H         -77.029381     -204.440079      -71.278717
 H         -76.892204     -205.777679      -72.433640
 H         -77.843651     -207.915649      -68.981133
 H         -77.226341     -208.392395      -70.560913
 H         -75.366714     -204.618958      -69.968651
 H         -74.594955     -205.051376      -71.572289
 H         -75.505112     -208.380020      -68.807892
 H         -75.945297     -206.833557      -68.312706
 H         -74.037758     -206.468079      -69.640892
 H         -74.629860     -207.591217      -70.920685
