20
 generated by VMD
 C         -30.733391      -93.859283      -26.033289
 N         -30.911295      -93.681252      -24.871675
 H         -33.691250      -93.057709      -27.060213
 H         -30.441809      -94.003891      -27.009991
 C         -34.179142      -92.725426      -27.917988
 C         -35.649242      -92.781120      -28.049931
 C         -33.403618      -92.287880      -29.133198
 C         -36.169098      -91.411980      -28.599239
 C         -33.950722      -90.940346      -29.641624
 C         -35.412560      -90.990974      -29.904469
 H         -36.225384      -92.916924      -27.083843
 H         -35.766930      -93.474785      -28.876724
 H         -32.327084      -92.203384      -28.842054
 H         -33.312511      -92.973953      -30.058094
 H         -36.082668      -90.561188      -27.836142
 H         -37.272682      -91.498283      -28.797358
 H         -33.380753      -90.728691      -30.620621
 H         -33.774963      -90.070419      -29.048046
 H         -35.833912      -90.000641      -29.978800
 H         -35.733086      -91.530037      -30.728277
