20
 generated by VMD
 C         -59.765591     -157.554108      -56.742687
 N         -59.219086     -158.552521      -56.655502
 H         -60.507793     -157.706818      -52.871628
 H         -60.318752     -156.631943      -56.856888
 C         -59.717571     -158.427628      -52.650925
 C         -58.319077     -158.068008      -52.280113
 C         -60.202610     -159.810608      -53.030090
 C         -57.825901     -159.267181      -51.325066
 C         -59.660282     -160.888290      -52.122486
 C         -58.096550     -160.690109      -51.818092
 H         -58.379974     -157.112732      -51.866081
 H         -57.716526     -158.032288      -53.183300
 H         -61.300087     -159.779739      -52.998100
 H         -59.896496     -159.965454      -54.156467
 H         -58.417488     -159.006531      -50.325531
 H         -56.821049     -159.068924      -51.039761
 H         -59.991165     -161.930908      -52.382450
 H         -60.057945     -160.740433      -51.059921
 H         -57.739536     -161.536652      -51.036713
 H         -57.486450     -160.955734      -52.680019
