20
 generated by VMD
 C         -29.988340      -79.305138      -25.920584
 N         -30.929777      -78.608643      -26.048428
 H         -28.879519      -82.832115      -25.716808
 H         -29.221823      -79.860695      -25.505995
 C         -28.907421      -82.911674      -24.686853
 C         -28.257973      -81.937187      -23.725992
 C         -29.908325      -83.910507      -24.155399
 C         -29.353697      -81.287643      -22.779108
 C         -30.921030      -83.189888      -23.180809
 C         -30.231794      -82.307297      -22.073317
 H         -27.678509      -81.122032      -24.260628
 H         -27.418278      -82.539673      -23.204754
 H         -30.294540      -84.504807      -24.927349
 H         -29.382044      -84.589157      -23.456930
 H         -29.887499      -80.538101      -23.376604
 H         -28.961054      -80.806389      -21.806875
 H         -31.575718      -83.812630      -22.632210
 H         -31.478586      -82.486229      -23.810900
 H         -30.896130      -81.763977      -21.450094
 H         -29.640322      -82.890060      -21.433550
