20
 generated by VMD
 C         -78.710976     -208.638733      -76.994553
 N         -79.296982     -208.443207      -76.050789
 H         -78.418358     -209.371292      -73.444962
 H         -78.049980     -208.834229      -77.883537
 C         -78.396332     -209.874405      -72.484337
 C         -77.100891     -209.792984      -71.858528
 C         -79.204720     -211.079437      -72.142319
 C         -77.232681     -209.885452      -70.344376
 C         -79.131821     -211.447006      -70.664986
 C         -77.749039     -211.302505      -69.927177
 H         -76.680511     -208.794296      -72.033440
 H         -76.469376     -210.535263      -72.307022
 H         -80.273773     -210.812714      -72.232521
 H         -78.958923     -211.888977      -72.872093
 H         -77.846069     -209.086029      -69.885971
 H         -76.191010     -209.668884      -70.065559
 H         -79.492500     -212.412216      -70.538116
 H         -79.852440     -210.815887      -70.030930
 H         -77.847794     -211.657562      -68.884628
 H         -77.081505     -212.077591      -70.347336
