20
 generated by VMD
 C         -23.042337      -54.383511      -15.107821
 N         -23.967016      -53.792538      -15.529457
 H         -20.107908      -54.793198      -15.428417
 H         -21.898020      -54.894207      -14.971937
 C         -19.845440      -55.266594      -14.523693
 C         -19.122715      -54.476479      -13.497673
 C         -19.130466      -56.570351      -15.077503
 C         -18.477175      -55.459068      -12.495467
 C         -18.417988      -57.436901      -14.054730
 C         -17.660376      -56.575695      -12.997493
 H         -19.806274      -53.837990      -12.869286
 H         -18.496296      -53.721527      -13.993102
 H         -19.746252      -57.303963      -15.744412
 H         -18.377760      -56.198418      -15.786901
 H         -19.235926      -55.900864      -11.840032
 H         -17.880699      -54.891670      -11.827049
 H         -17.721336      -58.079422      -14.555079
 H         -19.129023      -58.099205      -13.570812
 H         -17.389772      -57.302586      -12.192883
 H         -16.772346      -56.174099      -13.449208
