20
 generated by VMD
 C          -3.498861      -19.446144        2.882318
 N          -3.501882      -18.364145        3.147626
 H          -5.474055      -20.394302        0.085326
 H          -6.362338      -21.336409       -1.025621
 C          -6.211543      -20.315475       -0.679947
 C          -5.603067      -19.398340       -1.786159
 C          -7.541743      -19.810204       -0.189159
 C          -6.591854      -19.028587       -2.912345
 C          -8.498479      -19.524561       -1.368640
 C          -7.938222      -18.572113       -2.393544
 H          -4.684628      -19.771591       -2.306791
 H          -5.373336      -18.515448       -1.279061
 H          -8.025030      -20.470379        0.600135
 H          -7.383852      -18.752657        0.250976
 H          -6.793603      -19.837442       -3.659850
 H          -6.164978      -18.224194       -3.558905
 H          -9.410536      -19.067036       -0.894397
 H          -8.827605      -20.457596       -1.841607
 H          -8.581649      -18.551798       -3.249201
 H          -7.802588      -17.573719       -1.976741
