20
 generated by VMD
 C         -31.112106      -77.596405      -25.611366
 N         -31.641449      -77.957001      -26.639395
 H         -29.327658      -78.341606      -22.925711
 H         -30.512102      -77.420860      -24.729906
 C         -28.911997      -79.346420      -23.133154
 C         -27.490610      -79.546928      -23.400085
 C         -29.734667      -80.623894      -22.840382
 C         -26.870474      -80.191582      -22.160963
 C         -29.253939      -81.165596      -21.502983
 C         -27.708282      -81.198524      -21.348064
 H         -27.052748      -78.643425      -23.878807
 H         -27.356806      -80.368980      -24.146690
 H         -30.797884      -80.363899      -22.921236
 H         -29.523716      -81.336227      -23.590075
 H         -26.760260      -79.270584      -21.451935
 H         -25.895205      -80.637680      -22.284643
 H         -29.741663      -82.095695      -21.302866
 H         -29.730577      -80.562050      -20.645830
 H         -27.314981      -81.175705      -20.298635
 H         -27.333471      -82.218834      -21.649498
