20
 generated by VMD
 C          -1.406880      -10.456239        1.197643
 N          -0.826322      -11.356883        1.489334
 H          -3.804619      -13.260954        0.068463
 H          -5.243011      -12.675428        0.866207
 C          -4.578054      -13.563464        0.742643
 C          -3.791720      -13.850421        2.102690
 C          -5.422411      -14.694849        0.314897
 C          -4.665200      -14.554227        3.173057
 C          -6.334599      -15.223444        1.390189
 C          -5.517779      -15.612379        2.594000
 H          -3.300042      -12.941137        2.493987
 H          -2.937813      -14.475451        1.882513
 H          -6.076281      -14.430596       -0.571961
 H          -4.756390      -15.595202        0.003665
 H          -5.213055      -13.743125        3.582026
 H          -4.062834      -14.895298        4.004089
 H          -6.851808      -16.087795        0.945486
 H          -7.114315      -14.522856        1.562344
 H          -6.201491      -16.093267        3.340744
 H          -4.860195      -16.455086        2.218344
