20
 generated by VMD
 C         -29.685661      -87.905571      -25.151295
 N         -29.039516      -88.759789      -25.547977
 H         -31.345922      -89.656418      -27.842878
 H         -30.394602      -87.216965      -24.752096
 C         -32.382542      -89.732933      -27.531919
 C         -32.813477      -89.613510      -26.126276
 C         -33.449780      -89.487404      -28.477854
 C         -33.422424      -88.261368      -25.781445
 C         -34.103935      -88.172112      -28.207045
 C         -34.630657      -88.088257      -26.758644
 H         -31.943281      -89.680145      -25.477283
 H         -33.449261      -90.466492      -25.992561
 H         -33.059788      -89.357170      -29.498049
 H         -34.337631      -90.108284      -28.508444
 H         -32.670197      -87.540436      -25.878139
 H         -33.754227      -88.175423      -24.723328
 H         -34.901779      -87.909668      -28.875908
 H         -33.260445      -87.427994      -28.388794
 H         -35.265671      -87.155144      -26.569551
 H         -35.194778      -89.022980      -26.535995
