20
 generated by VMD
 C          -1.485566      -10.786241        0.736926
 N          -0.899635      -10.425669        1.636378
 H          -3.692432      -13.005249        0.224786
 H          -4.795196      -12.270865        1.459047
 C          -4.389763      -13.226664        1.029167
 C          -3.543967      -13.891917        2.117376
 C          -5.447112      -14.273119        0.528005
 C          -4.389578      -14.565511        3.263300
 C          -6.293488      -14.848876        1.637633
 C          -5.435076      -15.556467        2.638335
 H          -2.864678      -13.168448        2.653340
 H          -2.828309      -14.599660        1.695792
 H          -6.074691      -13.711562       -0.099545
 H          -4.878911      -15.000587        0.023068
 H          -4.968033      -13.859479        3.848418
 H          -3.897841      -15.140097        4.060470
 H          -7.010130      -15.586905        1.166852
 H          -6.897446      -14.092817        2.148279
 H          -5.994319      -16.158907        3.331994
 H          -4.813442      -16.233013        2.052054
