20
 generated by VMD
 C         -29.346363      -73.480141      -19.364676
 N         -29.770346      -74.523277      -19.070902
 H         -25.991951      -73.085205      -18.813084
 H         -28.823391      -72.583824      -19.458679
 C         -25.571535      -72.989235      -19.823114
 C         -24.890320      -74.043587      -20.669027
 C         -25.552238      -71.659256      -20.415871
 C         -25.619942      -74.048843      -22.225828
 C         -26.239954      -71.644699      -21.762650
 C         -25.696711      -72.645317      -22.863115
 H         -25.002342      -75.088272      -20.237267
 H         -23.905840      -73.720772      -20.845461
 H         -26.057106      -70.918678      -19.687063
 H         -24.498110      -71.374008      -20.553259
 H         -26.702816      -74.359665      -22.140850
 H         -25.031181      -74.753082      -22.851391
 H         -26.244532      -70.657547      -22.322311
 H         -27.280518      -71.946419      -21.699238
 H         -26.399628      -72.450104      -23.709494
 H         -24.703039      -72.385857      -23.155060
