20
 generated by VMD
 C         -20.993126      -64.737236      -17.158155
 N         -20.388191      -65.263412      -16.312103
 H         -24.030249      -63.612907      -17.751471
 H         -21.753534      -64.217590      -17.811008
 C         -24.350727      -64.580498      -18.098507
 C         -24.458460      -64.897217      -19.486561
 C         -24.939154      -65.482437      -17.035408
 C         -24.581045      -66.336113      -19.833841
 C         -24.912796      -66.986580      -17.288990
 C         -25.281736      -67.287079      -18.714973
 H         -23.570765      -64.348083      -19.888086
 H         -25.401476      -64.526825      -19.885065
 H         -24.508121      -65.196404      -15.968931
 H         -25.949751      -65.057503      -16.920319
 H         -23.615585      -66.776169      -19.933254
 H         -25.135628      -66.491051      -20.774891
 H         -25.569517      -67.541397      -16.672960
 H         -23.902872      -67.324677      -17.084124
 H         -24.909023      -68.269737      -18.918783
 H         -26.331879      -67.372154      -18.919981
