20
 generated by VMD
 C         -50.685215     -129.584274      -45.711246
 N         -51.115368     -130.577377      -45.380909
 H         -48.814507     -130.880417      -44.089043
 H         -50.348465     -128.696655      -46.213070
 C         -48.245186     -131.015854      -43.123032
 C         -48.326683     -132.354416      -42.281288
 C         -47.916168     -129.850159      -42.250916
 C         -47.246475     -132.545242      -41.212029
 C         -46.842163     -130.089462      -41.083855
 C         -47.124214     -131.341278      -40.275776
 H         -48.339874     -133.284225      -42.983276
 H         -49.280521     -132.342926      -41.801975
 H         -47.626877     -129.032089      -42.903839
 H         -48.928722     -129.558105      -41.685802
 H         -46.259754     -132.795731      -41.628178
 H         -47.457649     -133.503586      -40.737041
 H         -46.923027     -129.159134      -40.382633
 H         -45.777855     -130.102234      -41.401165
 H         -46.202576     -131.659988      -39.668789
 H         -48.031013     -131.111923      -39.656876
