20
 generated by VMD
 C         -40.284325     -104.589874      -36.051788
 N         -39.482670     -104.790749      -36.893082
 H         -40.600090     -107.730934      -35.031979
 H         -41.176422     -104.524605      -35.478016
 C         -40.078388     -107.882912      -34.074574
 C         -38.886368     -107.016838      -33.688145
 C         -39.904102     -109.259628      -33.546669
 C         -38.615681     -107.042938      -32.090588
 C         -39.960918     -109.202507      -32.079903
 C         -38.757511     -108.396713      -31.441530
 H         -39.066833     -105.985245      -33.956181
 H         -38.092377     -107.490685      -34.193954
 H         -40.674610     -109.717079      -34.068108
 H         -38.975449     -109.663033      -33.912094
 H         -39.254795     -106.296463      -31.581242
 H         -37.631718     -106.618164      -31.954281
 H         -39.908813     -110.140320      -31.625235
 H         -40.970676     -108.800461      -31.851696
 H         -38.651272     -108.358017      -30.301283
 H         -37.858730     -108.854210      -31.782078
