20
 generated by VMD
 C         -29.013979      -88.152977      -25.213144
 N         -28.770620      -87.601334      -26.182072
 H         -31.340830      -89.887444      -27.012230
 H         -29.422840      -88.574272      -24.361856
 C         -32.309040      -89.372711      -27.032448
 C         -32.738892      -89.152924      -25.634436
 C         -33.174610      -89.146049      -28.184429
 C         -33.729237      -88.037643      -25.554964
 C         -33.978481      -87.909561      -28.102369
 C         -34.801434      -87.933189      -26.721930
 H         -31.879383      -88.828499      -25.072443
 H         -33.330227      -90.068314      -25.406969
 H         -32.470184      -89.164215      -29.022188
 H         -33.699627      -90.074455      -28.178596
 H         -33.221886      -87.107414      -25.409073
 H         -34.286102      -88.014297      -24.694407
 H         -34.696518      -87.804214      -28.981243
 H         -33.352711      -86.955917      -28.099621
 H         -35.500927      -87.057632      -26.698645
 H         -35.376587      -88.877541      -26.674477
