20
 generated by VMD
 C         -59.850021     -152.095093      -50.511711
 N         -59.055546     -152.890930      -50.051666
 H         -56.668922     -151.104309      -48.512329
 H         -60.616020     -151.481445      -50.932312
 C         -55.879379     -150.816559      -49.194416
 C         -55.008118     -151.847305      -49.715034
 C         -55.312965     -149.421509      -49.166042
 C         -54.312782     -151.449188      -51.051449
 C         -54.780548     -148.966232      -50.534515
 C         -53.924305     -150.020844      -51.221558
 H         -55.457695     -152.838837      -49.736015
 H         -54.228512     -151.895477      -49.013817
 H         -56.166542     -148.746216      -49.023174
 H         -54.639061     -149.235977      -48.344677
 H         -54.976440     -151.696594      -51.855858
 H         -53.447823     -152.149384      -51.115101
 H         -54.052338     -148.119690      -50.517132
 H         -55.640953     -148.741302      -51.184738
 H         -53.587013     -149.811508      -52.233929
 H         -52.883499     -150.048538      -50.683250
