20
 generated by VMD
 C         -11.749752      -25.855501       -0.891725
 N         -11.863878      -25.169939       -0.012532
 H          -8.218615      -26.433907       -1.382627
 H          -9.096379      -25.654734       -2.694734
 C          -8.115770      -25.816324       -2.305004
 C          -7.356042      -26.612606       -3.361963
 C          -7.507591      -24.406492       -2.128980
 C          -7.330067      -25.861246       -4.648773
 C          -7.427972      -23.665739       -3.452243
 C          -6.804920      -24.433666       -4.591788
 H          -7.853445      -27.635445       -3.515350
 H          -6.378157      -26.810202       -2.942683
 H          -8.004434      -23.775684       -1.453040
 H          -6.449538      -24.494564       -1.798811
 H          -8.379734      -25.797884       -4.939629
 H          -6.867984      -26.407415       -5.477768
 H          -6.889510      -22.721951       -3.328822
 H          -8.433501      -23.351658       -3.694779
 H          -6.750321      -23.875889       -5.508674
 H          -5.692595      -24.545874       -4.398274
