20
 generated by VMD
 C         -20.104628      -56.135021      -16.781586
 N         -21.189621      -56.381207      -16.589445
 H         -21.948343      -59.242863      -17.276745
 H         -18.973944      -55.807270      -16.749147
 C         -22.275120      -59.978989      -16.512833
 C         -22.607903      -59.343563      -15.170803
 C         -22.011484      -61.389828      -16.465240
 C         -21.491932      -59.725693      -14.099377
 C         -20.824158      -61.693806      -15.625206
 C         -20.949638      -61.199326      -14.217082
 H         -23.589092      -59.541500      -14.750268
 H         -22.644329      -58.304691      -15.318220
 H         -22.896868      -62.001431      -16.117989
 H         -21.823879      -61.772877      -17.491783
 H         -22.009800      -59.654514      -13.089648
 H         -20.625540      -59.043079      -14.191219
 H         -19.894190      -61.336494      -16.063133
 H         -20.742695      -62.788750      -15.489903
 H         -21.448193      -61.961472      -13.555172
 H         -19.968204      -61.149021      -13.783885
