20
 generated by VMD
 C          -3.429939      -17.380665        2.286025
 N          -3.227365      -18.388504        1.842923
 H          -5.618109      -20.266081        0.697044
 H          -5.890336      -20.760283       -0.976407
 C          -6.033277      -19.964975       -0.263136
 C          -5.383660      -18.665449       -0.752152
 C          -7.540174      -19.771826        0.036696
 C          -6.160228      -18.183653       -2.032512
 C          -8.285713      -19.432856       -1.225683
 C          -7.724339      -18.167074       -1.728636
 H          -4.363859      -18.792559       -1.082861
 H          -5.319547      -17.853441        0.063927
 H          -7.899220      -20.627914        0.500634
 H          -7.778229      -19.100315        0.835416
 H          -5.896876      -18.687214       -2.910800
 H          -5.808632      -17.166906       -2.267688
 H          -9.330981      -19.305237       -0.958540
 H          -8.276506      -20.232248       -1.988987
 H          -8.304236      -17.736082       -2.555093
 H          -7.856260      -17.427462       -0.924562
