20
 generated by VMD
 C         -18.171190      -49.349766       -8.407467
 N         -19.152489      -49.855801       -8.438793
 H         -16.428024      -47.445225       -9.959104
 H         -16.956594      -48.981144      -10.637916
 C         -16.635479      -47.975513      -10.890585
 C         -15.367618      -48.040310      -11.717187
 C         -17.760172      -47.189796      -11.539713
 C         -15.696359      -48.693470      -13.108558
 C         -18.058500      -47.608799      -13.003592
 C         -16.806906      -47.928699      -13.890129
 H         -14.724239      -48.666939      -11.037378
 H         -14.982074      -47.050259      -11.942071
 H         -18.697039      -47.262810      -10.974017
 H         -17.397591      -46.121082      -11.591072
 H         -16.029175      -49.739445      -13.018002
 H         -14.800132      -48.593285      -13.722630
 H         -18.654671      -46.841019      -13.616097
 H         -18.637804      -48.488907      -12.953070
 H         -17.122028      -48.415516      -14.780040
 H         -16.343126      -47.022297      -14.236500
