20
 generated by VMD
 C         -19.891796      -50.324776      -10.166354
 N         -20.124062      -51.217014       -9.484572
 H         -17.308439      -49.079914      -10.062291
 H         -19.580389      -49.394024      -10.614422
 C         -17.019197      -49.024097      -11.127688
 C         -15.900845      -49.823990      -11.645111
 C         -17.671413      -47.939373      -11.988764
 C         -16.265221      -50.308498      -13.003762
 C         -17.796604      -48.287708      -13.517172
 C         -16.550026      -49.075878      -13.862118
 H         -15.620359      -50.698578      -11.010606
 H         -15.000984      -49.234566      -11.579565
 H         -18.701799      -47.713737      -11.700443
 H         -17.144775      -46.953030      -11.880148
 H         -17.101202      -50.985767      -12.915587
 H         -15.554276      -50.936195      -13.476978
 H         -17.834562      -47.288952      -14.075691
 H         -18.670338      -48.770432      -13.786766
 H         -16.554897      -49.282440      -14.909704
 H         -15.748111      -48.413181      -13.583138
