20
 generated by VMD
 C         -70.335953     -181.231094      -62.616314
 N         -70.827469     -180.256943      -62.903538
 H         -66.594528     -181.602554      -61.574303
 H         -69.901764     -182.162247      -62.214226
 C         -66.299789     -180.942627      -60.706074
 C         -64.886665     -180.747864      -60.177647
 C         -67.247681     -179.695953      -60.362789
 C         -64.316017     -179.462601      -60.768810
 C         -66.582916     -178.447266      -60.932968
 C         -65.086494     -178.210297      -60.544132
 H         -64.299850     -181.706223      -60.403030
 H         -64.812355     -180.752380      -59.020260
 H         -68.269844     -179.697144      -60.819302
 H         -67.341507     -179.598846      -59.261971
 H         -64.298737     -179.700058      -61.798885
 H         -63.325962     -179.315155      -60.385353
 H         -67.141708     -177.506165      -60.678978
 H         -66.571136     -178.429855      -62.060089
 H         -64.752769     -177.226990      -61.033367
 H         -65.086929     -178.069122      -59.451103
