20
 generated by VMD
 C         -40.814571     -103.953316      -37.111660
 N         -40.838406     -104.815712      -36.322758
 H         -39.547321     -105.682152      -33.942005
 H         -40.976254     -102.976738      -37.607468
 C         -39.290192     -106.396843      -33.250862
 C         -37.892418     -106.118378      -32.802872
 C         -39.625389     -107.847694      -33.403095
 C         -37.759781     -106.833511      -31.504271
 C         -39.586117     -108.537445      -31.976326
 C         -38.197964     -108.291725      -31.493490
 H         -37.810440     -105.062027      -32.670525
 H         -37.098885     -106.555382      -33.465660
 H         -40.574677     -107.955261      -33.838596
 H         -38.960892     -108.556587      -33.926476
 H         -38.337814     -106.139984      -30.815224
 H         -36.691929     -106.777687      -31.245165
 H         -39.836983     -109.573502      -31.830002
 H         -40.172310     -107.955841      -31.229288
 H         -38.332020     -108.596977      -30.396824
 H         -37.455605     -108.959602      -31.967752
