20
 generated by VMD
 C         -56.382111     -150.076736      -47.693653
 N         -57.558891     -150.325439      -47.638191
 H         -53.308907     -148.090195      -47.376694
 H         -55.355011     -149.812332      -47.759556
 C         -53.550884     -147.683563      -48.395111
 C         -53.129436     -148.541458      -49.638596
 C         -54.560196     -146.575134      -48.471008
 C         -54.118019     -148.670914      -50.770077
 C         -55.481853     -146.700775      -49.643303
 C         -54.984558     -147.369049      -50.972782
 H         -52.885578     -149.670517      -49.380264
 H         -52.135117     -148.221161      -49.859028
 H         -55.019650     -146.607544      -47.383495
 H         -54.012119     -145.628784      -48.611450
 H         -54.825981     -149.486084      -50.398304
 H         -53.697277     -149.161255      -51.666931
 H         -56.025623     -145.766190      -49.972755
 H         -56.289673     -147.327133      -49.340195
 H         -55.872246     -147.662521      -51.619179
 H         -54.418381     -146.656052      -51.583115
