20
 generated by VMD
 C         -49.524258     -133.019943      -47.161724
 N         -49.575634     -131.934464      -46.994946
 H         -47.712444     -134.346588      -44.087032
 H         -49.563160     -134.122208      -47.130180
 C         -48.621155     -134.684250      -43.679565
 C         -49.209091     -136.010071      -44.018738
 C         -49.597458     -133.624115      -43.051235
 C         -50.011257     -136.546844      -42.778427
 C         -50.399212     -134.215286      -41.968800
 C         -51.061127     -135.550522      -42.318043
 H         -48.385555     -136.755722      -44.273014
 H         -49.848297     -135.978226      -44.924404
 H         -49.137035     -132.639374      -42.820080
 H         -50.337189     -133.450806      -43.884594
 H         -49.281998     -136.779312      -42.033478
 H         -50.296917     -137.473877      -43.109169
 H         -51.194439     -133.654221      -41.560623
 H         -49.682686     -134.304321      -41.169670
 H         -51.451817     -135.993973      -41.386028
 H         -51.675137     -135.432419      -43.129211
