20
 generated by VMD
 C          -8.931217      -23.662327        2.654478
 N          -8.257418      -24.512344        2.870291
 H          -8.541369      -23.549114       -1.266007
 H          -9.350127      -22.787819       -2.587269
 C          -8.285138      -23.033894       -2.218448
 C          -7.727572      -24.023914       -3.242541
 C          -7.393148      -21.799196       -2.027425
 C          -7.248713      -23.357275       -4.506751
 C          -6.896039      -21.087406       -3.415117
 C          -6.266272      -22.199894       -4.297749
 H          -8.363508      -24.811388       -3.490133
 H          -6.880868      -24.447836       -2.672888
 H          -7.907611      -21.133961       -1.357919
 H          -6.463988      -22.154572       -1.539914
 H          -8.177679      -22.847876       -4.926172
 H          -6.741618      -24.079937       -5.218841
 H          -6.203467      -20.270910       -3.151864
 H          -7.763172      -20.723867       -3.983763
 H          -5.845092      -21.799248       -5.196990
 H          -5.464944      -22.668673       -3.790437
