20
 generated by VMD
 C         -12.582022      -30.185856       -7.798820
 N         -13.614694      -29.765980       -7.714717
 H         -11.310972      -30.289560       -5.045420
 H         -10.432929      -30.576656       -3.507037
 C         -10.804314      -31.049332       -4.464910
 C          -9.671480      -31.580170       -5.428216
 C         -11.762306      -32.185181       -4.034656
 C          -8.878325      -32.689697       -4.787670
 C         -10.881443      -33.308414       -3.431517
 C          -9.795805      -33.814079       -4.421374
 H          -8.919733      -30.775639       -5.777269
 H         -10.101587      -31.941631       -6.354877
 H         -12.505574      -31.797302       -3.315734
 H         -12.334607      -32.616322       -4.857717
 H          -8.282972      -32.334743       -3.976054
 H          -8.127363      -32.969959       -5.510446
 H         -11.452098      -34.113472       -3.064592
 H         -10.498634      -32.787495       -2.497963
 H          -9.213128      -34.636436       -4.048514
 H         -10.221033      -34.253391       -5.353181
