20
 generated by VMD
 C         -12.867302      -27.174637       -2.301364
 N         -11.948322      -27.560364       -1.811322
 H         -10.420087      -26.290615       -4.640728
 H          -8.847861      -26.080557       -5.417203
 C          -9.364219      -26.432405       -4.484118
 C          -9.027677      -27.906834       -4.390955
 C          -8.803450      -25.646732       -3.331769
 C          -7.542277      -28.198441       -4.356059
 C          -7.260580      -25.936384       -3.094586
 C          -6.886816      -27.417650       -3.216137
 H          -9.476890      -28.585480       -5.153818
 H          -9.549795      -28.290512       -3.506963
 H          -9.053967      -24.586252       -3.461435
 H          -9.357368      -25.879522       -2.400334
 H          -7.107366      -27.899900       -5.312131
 H          -7.290835      -29.295536       -4.259432
 H          -6.975588      -25.424421       -2.177413
 H          -6.799305      -25.374487       -3.934221
 H          -5.791879      -27.488287       -3.329761
 H          -7.182931      -27.968853       -2.339667
