20
 generated by VMD
 C         -50.965149     -129.665573      -45.318859
 N         -51.611237     -130.306320      -46.075390
 H         -48.543812     -130.503296      -43.604366
 H         -50.638996     -129.176788      -44.365997
 C         -48.169838     -130.572342      -42.635029
 C         -48.217083     -131.912079      -42.004204
 C         -47.682987     -129.355927      -41.856297
 C         -46.876411     -132.200256      -41.245846
 C         -46.415470     -129.714172      -41.008408
 C         -46.674393     -131.045609      -40.284225
 H         -48.262814     -132.852478      -42.631687
 H         -49.040081     -132.010498      -41.394951
 H         -47.432934     -128.589691      -42.533981
 H         -48.446575     -129.165283      -41.056255
 H         -45.919273     -132.494522      -41.815250
 H         -47.080463     -133.171768      -40.699249
 H         -46.277740     -128.937057      -40.186970
 H         -45.511398     -129.779541      -41.564236
 H         -45.747887     -131.148865      -39.723858
 H         -47.517548     -130.776779      -39.644688
