20
 generated by VMD
 C          -0.910466      -13.408951        0.839453
 N          -0.315658      -13.226438       -0.051602
 H          -4.567997      -13.236710        2.009776
 H          -5.733777      -13.591428        0.628034
 C          -5.238188      -13.992637        1.563592
 C          -6.396716      -14.449600        2.483792
 C          -4.378853      -15.133146        1.031265
 C          -7.130377      -15.611200        1.854639
 C          -5.263819      -16.199137        0.387273
 C          -6.208576      -16.755165        1.420902
 H          -7.045363      -13.534914        2.715145
 H          -6.012064      -14.719474        3.508480
 H          -3.533740      -14.708074        0.420557
 H          -3.833986      -15.639910        1.911808
 H          -7.742158      -15.343545        0.997750
 H          -7.865125      -16.030630        2.551613
 H          -4.688738      -17.009748       -0.089810
 H          -5.794505      -15.755469       -0.446655
 H          -6.939556      -17.407598        0.905194
 H          -5.844444      -17.338394        2.300111
