20
 generated by VMD
 C         -31.772234      -76.545906      -24.679188
 N         -31.811371      -76.917236      -25.739658
 H         -29.381775      -77.059448      -22.415468
 H         -31.267887      -76.153053      -23.739029
 C         -28.528660      -77.759171      -22.255150
 C         -27.552076      -78.096634      -23.320885
 C         -28.612293      -78.678963      -21.011454
 C         -26.146004      -78.292847      -22.625841
 C         -27.270918      -79.028404      -20.488415
 C         -26.213400      -79.439423      -21.560644
 H         -27.423643      -77.222855      -23.875309
 H         -27.907282      -78.896988      -23.954525
 H         -29.055145      -78.088028      -20.123363
 H         -29.176849      -79.587463      -21.324749
 H         -25.811344      -77.334045      -22.203396
 H         -25.336578      -78.460854      -23.394169
 H         -27.257513      -79.849152      -19.672497
 H         -26.938475      -78.106201      -19.951180
 H         -25.325979      -79.709930      -21.052526
 H         -26.588776      -80.298630      -22.073439
