20
 generated by VMD
 C         -68.161377     -185.164185      -67.680809
 N         -67.593712     -185.882584      -66.955627
 H         -69.483772     -185.238998      -64.551666
 H         -68.687889     -184.615753      -68.402824
 C         -69.660019     -185.613022      -63.537548
 C         -70.833580     -185.266541      -62.617897
 C         -68.965866     -186.837753      -63.114471
 C         -70.488258     -185.369415      -61.136715
 C         -68.366776     -186.736298      -61.716778
 C         -69.592987     -186.567886      -60.780910
 H         -71.594513     -185.896591      -63.028820
 H         -71.099983     -184.206299      -62.889404
 H         -69.717285     -187.646622      -63.227676
 H         -68.121681     -187.133682      -63.833942
 H         -71.429886     -185.384903      -60.581570
 H         -69.915672     -184.397705      -60.967003
 H         -67.575554     -185.913605      -61.674507
 H         -67.813217     -187.630692      -61.407890
 H         -70.133179     -187.578842      -60.637165
 H         -69.134102     -186.616486      -59.806530
