20
 generated by VMD
 C         -38.093895     -109.964226      -36.189663
 N         -37.484715     -108.978912      -36.131870
 H         -40.271984     -113.210907      -36.446320
 H         -38.465878     -110.909256      -36.518188
 C         -41.283295     -112.960213      -36.111851
 C         -42.391777     -113.861877      -36.596985
 C         -41.465469     -111.875816      -35.147785
 C         -43.366241     -114.191284      -35.443729
 C         -42.480579     -112.248810      -34.086803
 C         -43.713657     -112.892021      -34.676914
 H         -42.026115     -114.806854      -37.089108
 H         -42.996174     -113.320259      -37.286255
 H         -40.434956     -111.721153      -34.737698
 H         -41.700935     -110.985344      -35.803173
 H         -43.112629     -115.015511      -34.793896
 H         -44.375984     -114.513435      -35.923717
 H         -42.899284     -111.301125      -33.587498
 H         -41.911865     -112.905769      -33.339802
 H         -44.311859     -113.345001      -33.882061
 H         -44.354336     -112.156113      -35.201073
