20
 generated by VMD
 C         -69.365677     -180.363495      -60.027832
 N         -68.978249     -181.364807      -60.442314
 H         -67.331085     -177.100266      -59.542713
 H         -69.810204     -179.514160      -59.603580
 C         -66.370918     -176.986877      -59.927200
 C         -65.992096     -177.027313      -61.363113
 C         -65.195923     -176.963272      -58.887909
 C         -64.896423     -175.947250      -61.549717
 C         -64.145538     -176.009094      -59.218433
 C         -63.718536     -176.201935      -60.599037
 H         -66.826973     -176.692566      -62.025848
 H         -65.643730     -177.926849      -61.825741
 H         -65.737221     -176.705566      -57.943264
 H         -64.875511     -177.955460      -58.847843
 H         -65.394920     -174.964890      -61.331059
 H         -64.518715     -176.116562      -62.513397
 H         -63.368523     -176.136536      -58.480667
 H         -64.655876     -175.063629      -59.065975
 H         -62.964142     -175.389587      -60.772385
 H         -63.264824     -177.071365      -60.957897
