20
 generated by VMD
 C         -25.825483      -71.796043      -17.089134
 N         -26.655567      -72.449898      -16.581339
 H         -24.157333      -68.976532      -18.815710
 H         -25.056557      -71.167320      -17.546179
 C         -24.655386      -69.413025      -19.666456
 C         -24.139864      -70.666618      -20.294157
 C         -25.778362      -68.686142      -20.363853
 C         -25.151648      -71.558464      -21.202410
 C         -26.782404      -69.617569      -21.232405
 C         -25.986235      -70.721985      -22.150808
 H         -23.678570      -71.393250      -19.611927
 H         -23.327213      -70.382057      -21.118340
 H         -26.435282      -68.232315      -19.600874
 H         -25.317787      -67.856529      -21.045391
 H         -25.806765      -72.129814      -20.492237
 H         -24.523678      -72.291039      -21.670742
 H         -27.524040      -68.945282      -21.786915
 H         -27.288202      -70.340164      -20.473331
 H         -26.747120      -71.287445      -22.648418
 H         -25.301760      -70.323311      -22.876326
