20
 generated by VMD
 C         -28.212189      -73.778816      -18.323698
 N         -29.104216      -73.354012      -17.668962
 H         -25.474709      -72.075729      -18.714886
 H         -27.659481      -74.038918      -19.191866
 C         -25.422800      -72.004105      -19.812374
 C         -24.497021      -72.899437      -20.645475
 C         -25.856365      -70.650635      -20.429747
 C         -25.280375      -73.126144      -21.970161
 C         -26.272888      -70.746819      -21.951807
 C         -25.515686      -71.845856      -22.806023
 H         -24.251259      -73.867142      -20.285170
 H         -23.478579      -72.343475      -20.823978
 H         -26.758284      -70.322594      -19.848993
 H         -25.067650      -69.946640      -20.223387
 H         -26.299522      -73.573921      -21.756847
 H         -24.764374      -73.894028      -22.609781
 H         -26.032160      -69.834541      -22.534636
 H         -27.431063      -71.016594      -22.051634
 H         -26.108280      -72.018669      -23.696669
 H         -24.635695      -71.496132      -23.271229
