20
 generated by VMD
 C         -65.432487     -177.561218      -56.535599
 N         -66.110130     -176.849548      -55.890781
 H         -64.065514     -175.032394      -58.812893
 H         -64.849159     -178.132202      -57.227638
 C         -64.258270     -174.119553      -59.282539
 C         -65.439636     -173.243225      -58.992252
 C         -63.623104     -173.778427      -60.509823
 C         -64.916931     -171.796356      -58.764854
 C         -63.235527     -172.354279      -60.529400
 C         -64.201614     -171.356354      -60.042980
 H         -65.910645     -173.494537      -58.004223
 H         -66.231796     -173.199982      -59.732014
 H         -62.837349     -174.398651      -60.615963
 H         -64.423912     -173.814301      -61.207363
 H         -64.161827     -171.779755      -58.030331
 H         -65.700249     -171.082031      -58.511780
 H         -63.010605     -172.123596      -61.547894
 H         -62.208752     -172.252975      -60.008873
 H         -63.923653     -170.309464      -60.004070
 H         -64.975128     -171.318481      -60.844357
