20
 generated by VMD
 C         -69.030945     -181.175720      -61.263260
 N         -69.913612     -180.533722      -60.812763
 H         -67.208214     -178.527237      -59.628784
 H         -68.191658     -181.722610      -61.610710
 C         -66.290901     -178.048492      -59.848461
 C         -65.713631     -178.344269      -61.201866
 C         -65.403465     -177.427231      -58.808422
 C         -65.103882     -177.081711      -61.736156
 C         -64.825691     -176.166641      -59.321430
 C         -64.127396     -176.415497      -60.677891
 H         -66.494431     -178.545990      -61.899101
 H         -65.011055     -179.097809      -61.249420
 H         -65.997177     -177.407654      -57.810894
 H         -64.623726     -178.156021      -58.642757
 H         -65.934921     -176.334869      -61.934723
 H         -64.655998     -177.175079      -62.763668
 H         -63.969322     -175.897079      -58.724880
 H         -65.580315     -175.399124      -59.237186
 H         -63.521107     -175.552612      -61.143974
 H         -63.350780     -177.209579      -60.599407
