20
 generated by VMD
 C         -20.515385      -61.717308      -17.443270
 N         -19.501972      -61.319805      -16.954218
 H         -21.831821      -65.136864      -16.520655
 H         -21.295120      -62.239338      -17.894747
 C         -22.788490      -64.990524      -17.033297
 C         -23.033754      -64.273033      -18.279875
 C         -23.935162      -65.394394      -16.057871
 C         -24.369358      -64.655350      -18.896261
 C         -25.313728      -65.561943      -16.595566
 C         -25.431679      -64.598518      -17.778315
 H         -22.242300      -64.385872      -19.052755
 H         -23.188093      -63.112877      -18.031618
 H         -23.504993      -66.143677      -15.389875
 H         -24.007895      -64.344086      -15.582490
 H         -24.376648      -65.736954      -19.265675
 H         -24.579111      -64.046982      -19.790539
 H         -26.140265      -65.441460      -15.870075
 H         -25.526051      -66.621368      -16.860838
 H         -26.359829      -64.783630      -18.302237
 H         -25.607864      -63.504242      -17.483986
