20
 generated by VMD
 C         -49.696594     -131.876511      -46.593582
 N         -50.077721     -132.585037      -47.413609
 H         -48.100986     -132.596008      -44.169010
 H         -49.492104     -131.193298      -45.774017
 C         -48.810204     -133.068970      -43.575684
 C         -49.516178     -134.366699      -43.920670
 C         -48.938942     -132.491302      -42.231602
 C         -49.439529     -135.387360      -42.870758
 C         -48.934048     -133.632751      -41.131596
 C         -49.828087     -134.801208      -41.502087
 H         -48.970131     -134.605042      -44.757133
 H         -50.551659     -134.234116      -44.273571
 H         -48.258907     -131.652695      -42.117542
 H         -50.031151     -132.039764      -42.166843
 H         -48.362465     -135.766800      -42.785831
 H         -50.113934     -136.223587      -43.266739
 H         -49.307186     -133.350845      -40.121956
 H         -47.945232     -133.958282      -41.060608
 H         -49.925144     -135.622284      -40.803604
 H         -50.894527     -134.491364      -41.487404
