20
 generated by VMD
 C         -57.789165     -167.968094      -55.181057
 N         -56.763332     -168.336075      -54.925804
 H         -61.143875     -166.636337      -55.605118
 H         -58.761871     -167.677139      -55.587440
 C         -62.147469     -166.478699      -56.034206
 C         -62.582150     -167.341080      -57.158436
 C         -63.051445     -165.339203      -55.528042
 C         -64.055824     -167.414566      -57.398426
 C         -64.489677     -165.537338      -55.887020
 C         -64.625473     -166.095627      -57.265831
 H         -62.356491     -168.374741      -57.018150
 H         -62.002987     -166.987076      -58.142166
 H         -62.981770     -165.318130      -54.489513
 H         -62.591419     -164.408310      -55.828346
 H         -64.470993     -168.137680      -56.747540
 H         -64.345551     -167.778900      -58.364681
 H         -65.085144     -164.531631      -55.593460
 H         -64.876305     -166.355728      -55.208946
 H         -65.728371     -166.020737      -57.358719
 H         -64.097557     -165.356293      -57.933289
