20
 generated by VMD
 C         -78.935677     -207.167648      -75.333824
 N         -79.823784     -207.004135      -75.998444
 H         -77.892731     -209.354370      -73.345947
 H         -78.068558     -207.190750      -74.619987
 C         -77.741180     -209.427673      -72.332283
 C         -76.574005     -208.617447      -71.866722
 C         -78.257484     -210.420334      -71.354790
 C         -76.589050     -208.146027      -70.390175
 C         -78.206810     -210.107437      -69.916145
 C         -76.895920     -209.438309      -69.514076
 H         -76.500328     -207.697037      -72.452888
 H         -75.655937     -209.143570      -72.055428
 H         -79.324875     -210.248306      -71.501923
 H         -78.024925     -211.461349      -71.716713
 H         -77.333260     -207.296402      -70.203590
 H         -75.581017     -207.837540      -70.033401
 H         -78.216812     -211.085266      -69.426575
 H         -79.092346     -209.546432      -69.456116
 H         -76.880394     -209.098679      -68.481514
 H         -76.146500     -210.264679      -69.517952
