20
 generated by VMD
 C         -59.965240     -171.500626      -55.289074
 N         -59.470478     -172.519440      -54.899864
 H         -63.211399     -170.487946      -56.905556
 H         -60.525078     -170.605194      -55.571537
 C         -63.424690     -169.419067      -56.904217
 C         -62.507626     -168.347275      -57.407806
 C         -65.038467     -169.186646      -56.854416
 C         -63.059917     -167.908051      -58.786263
 C         -65.370430     -168.700165      -58.188999
 C         -64.571129     -167.627243      -58.720646
 H         -61.550190     -168.735214      -57.593876
 H         -62.364281     -167.581467      -56.630058
 H         -65.424881     -170.118423      -56.515007
 H         -65.152542     -168.472076      -55.998589
 H         -62.961590     -168.700272      -59.493595
 H         -62.555134     -167.035599      -59.075340
 H         -66.467995     -168.326309      -58.196461
 H         -65.405640     -169.615036      -58.837654
 H         -64.805817     -167.343445      -59.728771
 H         -64.732704     -166.713867      -58.114231
