20
 generated by VMD
 C         -41.517513     -119.667152      -34.294922
 N         -41.593174     -120.408287      -35.152229
 H         -43.268768     -118.612839      -36.746414
 H         -41.682510     -119.125938      -33.423393
 C         -43.761143     -118.408463      -37.737457
 C         -43.063030     -118.326408      -38.948811
 C         -45.121868     -117.789696      -37.803455
 C         -43.838512     -118.710579      -40.298889
 C         -45.959656     -118.138268      -39.117188
 C         -45.205070     -117.886108      -40.405308
 H         -42.180115     -118.995407      -38.998318
 H         -42.541965     -117.226982      -39.047413
 H         -45.737408     -118.128616      -36.998192
 H         -45.033607     -116.740959      -37.660454
 H         -44.033966     -119.812111      -40.335575
 H         -43.268200     -118.381622      -41.217007
 H         -46.738846     -117.431969      -39.165283
 H         -46.362888     -119.060135      -38.975410
 H         -45.848518     -118.267227      -41.202385
 H         -45.100006     -116.818031      -40.464455
