20
 generated by VMD
 C         -11.981473      -25.687962       -0.216984
 N         -12.996551      -26.116199       -0.285713
 H          -9.470637      -26.669891       -2.760080
 H          -9.452447      -25.856102       -4.308236
 C          -8.842297      -26.207466       -3.474791
 C          -7.777302      -27.211973       -3.902915
 C          -8.171258      -25.095900       -2.701367
 C          -6.825819      -26.408825       -4.858613
 C          -7.203630      -24.322739       -3.535202
 C          -6.116208      -25.303795       -4.075786
 H          -8.281695      -28.096243       -4.347942
 H          -7.202009      -27.719116       -3.185723
 H          -8.887201      -24.361050       -2.253878
 H          -7.715271      -25.520763       -1.810453
 H          -7.411733      -26.068920       -5.710074
 H          -6.106524      -27.046284       -5.328084
 H          -6.673277      -23.629229       -2.906211
 H          -7.699517      -23.794268       -4.369772
 H          -5.373010      -24.723824       -4.675306
 H          -5.596773      -25.755280       -3.209287
