20
 generated by VMD
 C         -29.586412      -89.499252      -25.063532
 N         -29.170544      -89.327095      -26.098173
 H         -31.990505      -90.625969      -26.788857
 H         -30.117744      -89.852287      -24.126810
 C         -32.820450      -90.654533      -27.471558
 C         -34.204300      -91.038567      -26.944422
 C         -32.833515      -89.524513      -28.540674
 C         -34.992519      -89.828979      -26.538843
 C         -33.522076      -88.262512      -28.018667
 C         -34.880779      -88.614937      -27.442438
 H         -34.313221      -91.790009      -26.178602
 H         -34.763779      -91.478905      -27.726257
 H         -31.808355      -89.495361      -28.883230
 H         -33.347782      -89.947525      -29.443586
 H         -34.475174      -89.455177      -25.636482
 H         -36.107361      -89.958382      -26.409475
 H         -33.600483      -87.501350      -28.834702
 H         -32.988476      -87.823364      -27.184673
 H         -35.267872      -87.765175      -26.877165
 H         -35.678986      -88.568466      -28.339607
