20
 generated by VMD
 C         -11.385738      -34.057648       -8.519672
 N         -10.702062      -34.855579       -8.876653
 H         -11.853204      -37.429066       -7.771423
 H         -12.815959      -37.087044       -6.384669
 C         -12.699056      -37.807064       -7.223650
 C         -12.502109      -39.216003       -6.718180
 C         -13.963115      -37.604259       -8.026533
 C         -13.761570      -39.656361       -5.963975
 C         -15.224350      -38.240074       -7.400225
 C         -14.926644      -39.633408       -6.830846
 H         -11.641014      -39.207085       -6.058292
 H         -12.164910      -39.962826       -7.446136
 H         -14.232026      -36.578568       -8.175630
 H         -13.840829      -37.956905       -9.115988
 H         -13.830078      -39.160618       -4.987376
 H         -13.653419      -40.749428       -5.657372
 H         -15.963350      -38.365116       -8.150852
 H         -15.667724      -37.552433       -6.571637
 H         -15.805249      -39.963970       -6.269515
 H         -14.757490      -40.393250       -7.641534
