20
 generated by VMD
 C         -76.163155     -202.792770      -66.456970
 N         -76.944550     -203.160492      -65.707520
 H         -75.416298     -200.538116      -68.584442
 H         -75.463348     -202.423538      -67.196503
 C         -74.907799     -199.740097      -69.092804
 C         -74.821068     -198.281418      -68.627403
 C         -73.728943     -200.140091      -69.861504
 C         -73.308647     -197.765823      -68.545166
 C         -73.289238     -199.029678      -70.759361
 C         -72.745193     -197.785370      -69.946320
 H         -75.285126     -198.231323      -67.669136
 H         -75.407051     -197.640549      -69.304192
 H         -73.025101     -200.343842      -69.110847
 H         -73.868835     -200.989456      -70.527039
 H         -72.714447     -198.499542      -68.000885
 H         -73.178276     -196.749237      -68.097610
 H         -74.194244     -198.814209      -71.428741
 H         -72.575226     -199.398666      -71.585442
 H         -71.652214     -197.858902      -70.026939
 H         -73.113655     -196.851166      -70.545319
