20
 generated by VMD
 C         -69.874130     -197.389282      -65.994331
 N         -69.197731     -196.476654      -65.663063
 H         -71.677444     -193.998688      -65.005341
 H         -70.334724     -198.272385      -66.311172
 C         -72.618431     -193.820358      -65.606224
 C         -72.829254     -192.357758      -66.049553
 C         -73.003540     -194.987976      -66.451973
 C         -73.704994     -192.241806      -67.275696
 C         -74.174576     -194.578888      -67.377914
 C         -73.731712     -193.395233      -68.250511
 H         -71.842087     -192.019073      -66.313026
 H         -73.319405     -191.742096      -65.290985
 H         -72.162216     -195.171051      -67.079086
 H         -73.349663     -195.706039      -65.745399
 H         -73.332413     -191.346588      -67.762718
 H         -74.729279     -192.029419      -66.913826
 H         -75.093315     -194.348877      -66.858528
 H         -74.400421     -195.466400      -68.042641
 H         -72.592178     -193.633011      -68.641312
 H         -74.385483     -193.289566      -69.068657
