20
 generated by VMD
 C         -30.945541      -92.761711      -26.172514
 N         -30.423515      -92.554634      -25.154179
 H         -32.429863      -89.992874      -26.610611
 H         -31.473133      -93.089294      -27.083021
 C         -33.326233      -90.183197      -27.230000
 C         -33.957840      -91.673477      -27.121899
 C         -33.330700      -89.464264      -28.503944
 C         -35.270000      -91.639938      -27.851538
 C         -34.656498      -89.644493      -29.258720
 C         -34.938560      -91.179581      -29.310207
 H         -33.909031      -91.776268      -26.054800
 H         -33.191158      -92.336006      -27.647846
 H         -33.343212      -88.375671      -28.282177
 H         -32.531330      -89.745071      -29.275766
 H         -36.118355      -91.024826      -27.439274
 H         -35.500061      -92.662552      -27.858114
 H         -34.565372      -89.385170      -30.319832
 H         -35.475338      -89.047882      -28.816870
 H         -35.805557      -91.218254      -29.981251
 H         -34.175861      -91.853500      -29.624332
