20
 generated by VMD
 C         -47.936241     -139.861008      -46.082340
 N         -46.836243     -139.520569      -45.833122
 H         -51.134766     -138.566422      -44.940487
 H         -48.975952     -139.904434      -46.281361
 C         -51.913860     -139.203873      -45.384876
 C         -52.023304     -139.432678      -46.910927
 C         -53.178997     -139.032806      -44.633259
 C         -53.079857     -140.471115      -47.175243
 C         -54.259228     -140.064468      -45.051384
 C         -54.345234     -140.092499      -46.493874
 H         -51.073338     -139.681046      -47.324162
 H         -52.348145     -138.526321      -47.502136
 H         -52.827774     -139.143723      -43.599709
 H         -53.635475     -138.051392      -44.519985
 H         -52.685123     -141.369797      -46.707966
 H         -53.185917     -140.673233      -48.277451
 H         -55.196884     -139.703537      -44.532162
 H         -54.047970     -141.095276      -44.700569
 H         -55.010830     -141.036652      -46.823147
 H         -54.789009     -139.274414      -47.088749
