20
 generated by VMD
 C         -47.372211     -138.942368      -45.654583
 N         -46.842934     -138.559494      -46.660809
 H         -50.650387     -138.390427      -44.798908
 H         -47.739067     -139.526642      -44.842819
 C         -51.607231     -138.797791      -45.098396
 C         -51.823360     -139.132584      -46.530369
 C         -52.913853     -138.444092      -44.353874
 C         -52.955460     -140.152054      -46.798691
 C         -54.065884     -139.399109      -44.684189
 C         -54.275784     -139.680038      -46.122601
 H         -50.887154     -139.393127      -47.132069
 H         -52.036575     -138.085770      -46.896168
 H         -52.777634     -138.353790      -43.303352
 H         -53.170269     -137.471390      -44.734470
 H         -52.843075     -141.143768      -46.282497
 H         -53.100407     -140.444794      -47.868328
 H         -55.122410     -139.046234      -44.487175
 H         -53.995506     -140.252380      -43.969608
 H         -55.019310     -140.507538      -46.201996
 H         -54.572899     -138.796646      -46.527271
