20
 generated by VMD
 C         -11.086875      -37.473949       -7.168620
 N         -11.523805      -37.649986       -8.159624
 H         -12.437798      -40.308876       -8.343253
 H         -13.548705      -39.851608       -6.986445
 C         -13.529408      -40.325378       -8.037132
 C         -13.954218      -41.800488       -7.950822
 C         -14.212063      -39.465370       -9.117449
 C         -15.530160      -41.912735       -7.750772
 C         -15.781754      -39.673298       -9.044602
 C         -16.261787      -41.130524       -8.875965
 H         -13.465303      -42.362911       -7.164303
 H         -13.804331      -42.270760       -8.940527
 H         -13.988932      -38.448326       -8.946921
 H         -13.896826      -39.773876      -10.122972
 H         -15.799054      -41.369709       -6.844005
 H         -15.797583      -42.963646       -7.679298
 H         -16.223045      -39.147800       -9.915358
 H         -16.090816      -39.144863       -8.119731
 H         -17.316500      -41.119511       -8.624820
 H         -16.120409      -41.744045       -9.796968
