20
 generated by VMD
 C         -51.536770     -145.785965      -43.950691
 N         -51.400181     -146.437332      -44.915485
 H         -53.294033     -145.060349      -46.691750
 H         -51.456306     -145.166489      -43.028511
 C         -53.759598     -144.522919      -47.539528
 C         -52.814835     -144.393524      -48.705647
 C         -54.822083     -143.443390      -47.464787
 C         -53.538017     -143.947922      -50.016430
 C         -55.401356     -142.977188      -48.804295
 C         -54.328049     -142.726089      -49.736595
 H         -52.313591     -145.339661      -48.916229
 H         -51.966698     -143.674850      -48.353062
 H         -55.626633     -143.824188      -46.795567
 H         -54.454838     -142.510986      -47.111710
 H         -54.080147     -144.757965      -50.450138
 H         -52.749199     -143.696533      -50.713970
 H         -55.979389     -142.084473      -48.673744
 H         -56.005505     -143.799866      -49.216377
 H         -54.821625     -142.293564      -50.633339
 H         -53.639004     -141.971954      -49.349529
