20
 generated by VMD
 C         -47.962616     -134.665192      -46.700439
 N         -47.934505     -134.363846      -47.770229
 H         -50.329361     -134.652695      -45.047108
 H         -47.753941     -134.798904      -45.636459
 C         -50.629070     -135.432343      -44.436977
 C         -51.098846     -136.620743      -45.194592
 C         -51.154160     -135.218948      -43.038376
 C         -51.021694     -137.855988      -44.309555
 C         -51.089294     -136.441956      -42.255081
 C         -51.773487     -137.634384      -43.043884
 H         -50.496780     -136.684433      -46.117634
 H         -52.066483     -136.259933      -45.496803
 H         -50.467785     -134.354004      -42.742535
 H         -52.183422     -134.909256      -43.000931
 H         -50.011902     -138.288925      -44.175816
 H         -51.698135     -138.539474      -44.902000
 H         -51.511292     -136.394684      -41.267281
 H         -50.045773     -136.680756      -42.080151
 H         -51.801193     -138.490921      -42.328037
 H         -52.927090     -137.455338      -43.247463
