20
 generated by VMD
 C         -67.295853     -189.654373      -67.012665
 N         -66.726433     -190.086945      -66.115562
 H         -70.576332     -190.801620      -66.315559
 H         -67.986717     -189.395706      -67.750923
 C         -71.046394     -190.420059      -65.366714
 C         -72.150551     -191.090179      -64.620407
 C         -70.438271     -189.107407      -64.628754
 C         -73.237358     -190.095276      -64.227028
 C         -71.444687     -188.329895      -63.732090
 C         -72.587158     -189.109390      -63.196926
 H         -71.854767     -191.625351      -63.795780
 H         -72.557617     -191.936951      -65.188736
 H         -69.534439     -189.278107      -64.036400
 H         -69.975494     -188.225433      -65.280380
 H         -74.103745     -190.603607      -63.827953
 H         -73.639023     -189.562347      -65.088310
 H         -71.863892     -187.429230      -64.272377
 H         -70.961784     -187.821762      -62.837994
 H         -72.114670     -189.714905      -62.455742
 H         -73.446350     -188.391998      -62.737118
