20
 generated by VMD
 C         -47.966808     -134.443649      -47.299225
 N         -48.014439     -133.724731      -48.280994
 H         -49.696091     -134.273575      -44.247444
 H         -47.753815     -134.850891      -46.336758
 C         -50.277241     -135.148773      -43.929585
 C         -50.570103     -136.325317      -44.792511
 C         -51.147743     -134.960327      -42.716663
 C         -50.797447     -137.634018      -44.093487
 C         -51.363319     -136.270187      -41.967915
 C         -51.666977     -137.433838      -42.843891
 H         -49.616241     -136.475479      -45.476055
 H         -51.418770     -136.119064      -45.434036
 H         -50.838543     -134.098495      -42.086769
 H         -52.129074     -134.710098      -43.239616
 H         -49.775307     -137.970947      -43.817646
 H         -51.280151     -138.468460      -44.545158
 H         -52.173157     -136.062363      -41.239563
 H         -50.574211     -136.580750      -41.319748
 H         -51.646099     -138.356781      -42.204720
 H         -52.759312     -137.130463      -43.205944
