20
 generated by VMD
 C         -68.828270     -193.789612      -64.571938
 N         -68.430511     -194.272568      -65.506348
 H         -71.101089     -193.582138      -67.755913
 H         -68.918976     -193.357880      -63.550331
 C         -71.849953     -193.066040      -67.198097
 C         -71.481018     -191.911224      -66.431160
 C         -73.215897     -193.740616      -67.287407
 C         -72.775047     -191.224136      -65.927948
 C         -74.300797     -193.271698      -66.283417
 C         -73.755791     -192.260880      -65.254501
 H         -70.804909     -191.145538      -66.957573
 H         -70.945961     -192.078659      -65.566490
 H         -73.472794     -193.748734      -68.379257
 H         -73.050156     -194.877625      -67.323891
 H         -73.309021     -190.670059      -66.733727
 H         -72.612488     -190.434906      -65.140732
 H         -74.842682     -194.155945      -65.820595
 H         -75.077271     -192.678833      -66.763840
 H         -74.533989     -191.601059      -64.727844
 H         -73.229317     -192.759552      -64.398445
