20
 generated by VMD
 C         -58.887653     -161.225937      -56.567474
 N         -58.536896     -160.208755      -57.045582
 H         -59.086182     -164.214661      -55.126137
 H         -59.265213     -162.151962      -56.135380
 C         -59.756577     -163.575851      -54.550152
 C         -59.522022     -163.314545      -53.081673
 C         -61.155464     -163.533600      -54.958782
 C         -60.428932     -162.197601      -52.530151
 C         -62.039833     -162.430618      -54.450668
 C         -61.857910     -162.197693      -53.039066
 H         -58.518150     -162.854675      -53.109642
 H         -59.666801     -164.312424      -52.554432
 H         -61.191185     -163.439972      -56.111904
 H         -61.632946     -164.435669      -54.612312
 H         -59.996269     -161.251801      -52.501610
 H         -60.472412     -162.407669      -51.427616
 H         -63.042236     -162.645279      -54.793373
 H         -62.159554     -161.487503      -55.002926
 H         -62.331779     -161.345093      -52.647781
 H         -62.201130     -163.086655      -52.501862
