20
 generated by VMD
 C         -65.930634     -177.746643      -56.930515
 N         -66.522964     -176.794861      -57.185184
 H         -64.421860     -175.793335      -58.965866
 H         -65.433769     -178.593842      -56.570148
 C         -64.511490     -174.803131      -59.253994
 C         -65.664688     -173.901382      -58.908714
 C         -63.463142     -174.368484      -60.300343
 C         -65.216354     -172.313614      -58.943329
 C         -63.130436     -172.929489      -60.317501
 C         -64.306053     -172.081818      -60.272175
 H         -65.849800     -174.191559      -57.920422
 H         -66.598083     -173.991241      -59.547478
 H         -62.677135     -175.064072      -60.032936
 H         -63.878185     -174.705490      -61.272701
 H         -64.648033     -171.894928      -58.170349
 H         -66.054062     -171.658890      -59.040829
 H         -62.542126     -172.743011      -61.262550
 H         -62.520752     -172.687546      -59.451328
 H         -64.042946     -170.970825      -60.249538
 H         -64.901543     -172.200333      -61.146751
