20
 generated by VMD
 C         -59.998951     -152.642136      -51.015778
 N         -60.939785     -152.728912      -51.713570
 H         -56.816055     -153.052322      -49.330235
 H         -59.232784     -152.497452      -50.268284
 C         -56.093006     -152.284225      -49.523365
 C         -54.635181     -152.806213      -49.581554
 C         -56.290165     -150.828827      -49.797569
 C         -53.745174     -152.397400      -50.777298
 C         -55.460758     -150.552628      -51.114025
 C         -53.946518     -150.929214      -50.916595
 H         -54.611290     -153.935257      -49.510777
 H         -54.229446     -152.555267      -48.633717
 H         -57.395939     -150.619675      -49.737988
 H         -55.740440     -150.404205      -48.933037
 H         -54.012123     -153.028107      -51.650211
 H         -52.655083     -152.691330      -50.663231
 H         -55.609550     -149.550339      -51.432568
 H         -55.832954     -151.348465      -51.923164
 H         -53.510883     -150.646729      -51.834972
 H         -53.354382     -150.233353      -50.185455
