20
 generated by VMD
 C         -57.918079     -164.698975      -56.509327
 N         -57.242306     -163.982697      -57.199955
 H         -59.956394     -164.880341      -54.407055
 H         -58.471859     -165.411331      -55.903316
 C         -61.014641     -164.917221      -54.654255
 C         -61.888252     -165.798386      -53.826733
 C         -61.358528     -164.267624      -55.881630
 C         -63.417950     -165.566010      -54.055969
 C         -62.898232     -163.857498      -55.862362
 C         -63.704487     -165.056183      -55.436119
 H         -61.647522     -165.479568      -52.751106
 H         -61.691681     -166.821442      -54.131222
 H         -60.822674     -163.371277      -55.940048
 H         -61.241375     -164.789307      -56.831871
 H         -63.668644     -164.821091      -53.342865
 H         -63.999699     -166.351349      -53.612396
 H         -63.096611     -163.452530      -56.832790
 H         -62.920502     -163.148560      -54.990639
 H         -64.876038     -164.861404      -55.600651
 H         -63.459236     -165.951569      -56.158363
