20
 generated by VMD
 C         -36.830505      -98.211075      -27.216663
 N         -37.826347      -98.315308      -26.620216
 H         -36.515965      -96.173096      -28.907314
 H         -35.970402      -98.194366      -27.790880
 C         -35.585464      -96.511795      -29.418667
 C         -35.432964      -97.160309      -30.741577
 C         -34.464603      -95.576851      -29.059525
 C         -35.037537      -96.114693      -31.839382
 C         -34.259087      -94.518875      -30.208435
 C         -33.848244      -95.314964      -31.538845
 H         -36.347500      -97.680077      -30.963102
 H         -34.646118      -97.976273      -30.617579
 H         -34.650406      -94.865379      -28.235538
 H         -33.540436      -96.146164      -28.798691
 H         -35.931839      -95.500175      -31.973269
 H         -34.799854      -96.629364      -32.853226
 H         -33.361256      -93.832710      -29.944687
 H         -35.143940      -93.912201      -30.424461
 H         -33.485607      -94.628204      -32.435432
 H         -32.993797      -95.990562      -31.189661
