20
 generated by VMD
 C         -31.043930      -93.608032      -26.117939
 N         -31.527819      -93.785698      -25.086130
 H         -33.888767      -94.275223      -28.155514
 H         -30.778162      -93.357910      -27.056967
 C         -34.072689      -93.198746      -28.203499
 C         -35.514851      -92.849670      -27.999830
 C         -33.301983      -92.541496      -29.344620
 C         -36.010643      -91.484489      -28.466621
 C         -33.882843      -91.103462      -29.548166
 C         -35.419632      -91.003517      -29.771748
 H         -35.606800      -92.927917      -26.871965
 H         -36.103107      -93.721275      -28.185846
 H         -32.269920      -92.498795      -28.935570
 H         -33.408623      -93.174377      -30.290850
 H         -35.745060      -90.659286      -27.772373
 H         -37.111370      -91.467842      -28.648399
 H         -33.231869      -90.801765      -30.421442
 H         -33.653412      -90.412407      -28.745792
 H         -35.627251      -89.980675      -30.049324
 H         -35.657116      -91.579048      -30.576332
