20
 generated by VMD
 C         -50.310940     -129.532440      -43.480648
 N         -50.847244     -129.696198      -44.482689
 H         -48.984936     -127.716240      -40.772793
 H         -50.013741     -129.452576      -42.423588
 C         -47.983635     -128.127380      -40.980888
 C         -47.633171     -129.611755      -40.788967
 C         -46.971035     -127.064514      -40.667381
 C         -46.413563     -129.962936      -41.596001
 C         -45.724808     -127.447021      -41.559387
 C         -45.281528     -128.932465      -41.242905
 H         -48.493061     -130.197800      -41.102222
 H         -47.463413     -129.823669      -39.710621
 H         -47.339439     -126.069633      -41.000664
 H         -46.714619     -127.065689      -39.536606
 H         -46.526398     -129.711288      -42.609547
 H         -46.160275     -131.021820      -41.571426
 H         -45.030525     -126.658607      -41.384537
 H         -45.920235     -127.323730      -42.570454
 H         -44.382484     -129.223312      -41.762699
 H         -44.920891     -129.018921      -40.192757
