20
 generated by VMD
 C         -38.073364     -114.636780      -35.361439
 N         -38.945660     -115.226158      -34.878529
 H         -41.494030     -115.823463      -36.731880
 H         -37.313034     -114.213448      -36.090527
 C         -42.440495     -115.207352      -36.933437
 C         -42.845749     -115.176437      -38.385120
 C         -43.559055     -115.006577      -35.906094
 C         -44.170063     -115.965767      -38.637051
 C         -44.733192     -115.958221      -36.187603
 C         -45.237755     -115.575829      -37.571472
 H         -42.112709     -115.747459      -38.929955
 H         -42.902912     -114.136200      -38.680431
 H         -43.226593     -115.273438      -34.957161
 H         -43.780972     -113.983597      -35.842686
 H         -43.921398     -117.014549      -38.658821
 H         -44.590851     -115.701836      -39.676880
 H         -45.415974     -115.909340      -35.360710
 H         -44.360645     -116.977448      -36.069744
 H         -46.211948     -116.022797      -37.962234
 H         -45.341808     -114.578110      -37.699406
