20
 generated by VMD
 C         -70.097679     -181.351974      -62.866425
 N         -71.141098     -181.146774      -63.270607
 H         -67.487770     -181.728729      -60.887539
 H         -69.073486     -181.593231      -62.610336
 C         -66.832680     -180.897263      -60.842411
 C         -65.466888     -181.235001      -60.497852
 C         -67.302803     -179.502640      -60.621426
 C         -64.468628     -180.077438      -60.659115
 C         -66.279167     -178.415192      -60.938377
 C         -64.969994     -178.717285      -60.246620
 H         -65.083908     -181.938171      -61.230618
 H         -65.487602     -181.626450      -59.524483
 H         -68.276566     -179.348724      -61.315403
 H         -67.638550     -179.404648      -59.526367
 H         -64.079659     -180.049515      -61.765762
 H         -63.574490     -180.574631      -60.095963
 H         -66.553986     -177.445053      -60.526188
 H         -66.134453     -178.412735      -62.010902
 H         -64.078117     -177.993469      -60.557144
 H         -65.018814     -178.544388      -59.164173
