20
 generated by VMD
 C         -78.115196     -203.491074      -69.525612
 N         -78.922462     -204.359100      -69.445343
 H         -75.346298     -202.046936      -67.275284
 H         -77.439346     -202.673965      -69.460037
 C         -74.983681     -201.703445      -68.279877
 C         -74.981384     -200.327591      -68.633507
 C         -73.762428     -202.506226      -68.707298
 C         -74.815430     -200.115952      -70.132828
 C         -72.931664     -201.836502      -69.921150
 C         -73.745384     -200.979172      -70.837036
 H         -74.220436     -199.876389      -68.059761
 H         -75.935455     -199.868149      -68.227570
 H         -73.107254     -202.701752      -67.858742
 H         -74.211800     -203.433929      -69.031357
 H         -74.489754     -199.074005      -70.153908
 H         -75.808327     -200.157867      -70.579185
 H         -72.447731     -202.624542      -70.550636
 H         -72.205902     -201.226074      -69.331009
 H         -73.080635     -200.372131      -71.416718
 H         -74.195686     -201.762405      -71.538063
