20
 generated by VMD
 C         -60.111191     -157.366150      -56.276413
 N         -59.532169     -158.294083      -56.561977
 H         -60.265850     -157.440720      -53.051586
 H         -60.717606     -156.482742      -56.057690
 C         -59.438751     -158.131393      -52.922340
 C         -58.083752     -157.914017      -52.327190
 C         -59.812057     -159.681244      -53.154873
 C         -57.769421     -158.880753      -51.056488
 C         -59.372047     -160.594437      -52.019619
 C         -57.958576     -160.320770      -51.512463
 H         -57.886452     -156.873138      -52.159084
 H         -57.300701     -158.182892      -53.157211
 H         -60.874550     -159.694763      -53.452221
 H         -59.376907     -159.954422      -54.133770
 H         -58.474121     -158.401993      -50.276627
 H         -56.690933     -158.857361      -50.718239
 H         -59.315388     -161.660675      -52.278374
 H         -60.212963     -160.424973      -51.232807
 H         -57.699211     -161.120407      -50.628654
 H         -57.215107     -160.402069      -52.295212
