20
 generated by VMD
 C         -10.956404      -34.219673       -8.708706
 N         -11.225291      -33.137688       -8.930300
 H         -11.558310      -38.007042       -8.090808
 H         -12.150350      -37.318542       -6.523326
 C         -12.356120      -38.042557       -7.329697
 C         -12.493213      -39.325798       -6.578764
 C         -13.624641      -37.682461       -8.036088
 C         -13.624640      -39.287041       -5.621290
 C         -14.864816      -37.748581       -7.088910
 C         -14.955814      -39.036728       -6.301254
 H         -11.541364      -39.424870       -6.036835
 H         -12.579459      -40.127598       -7.297436
 H         -13.638684      -36.612411       -8.459774
 H         -13.798053      -38.443184       -8.796263
 H         -13.448464      -38.448418       -4.868839
 H         -13.689662      -40.266453       -5.103202
 H         -15.826951      -37.693344       -7.710841
 H         -14.889109      -36.950092       -6.406561
 H         -15.793409      -39.007717       -5.599490
 H         -15.157924      -39.883255       -6.946239
