20
 generated by VMD
 C         -47.880058     -134.789658      -46.461475
 N         -47.874859     -134.596542      -47.578217
 H         -50.588223     -134.680801      -45.321751
 H         -48.044720     -135.098572      -45.438881
 C         -50.862251     -135.446960      -44.621353
 C         -51.332340     -136.708084      -45.335030
 C         -51.176201     -135.285950      -43.175026
 C         -51.244385     -137.976242      -44.518909
 C         -51.010834     -136.542953      -42.355801
 C         -51.607029     -137.714340      -43.041973
 H         -50.765675     -136.787354      -46.315601
 H         -52.336536     -136.411316      -45.552048
 H         -50.528465     -134.489136      -42.920254
 H         -52.202652     -134.869705      -43.060226
 H         -50.165108     -138.271866      -44.489212
 H         -51.839256     -138.800873      -44.848423
 H         -51.423183     -136.472534      -41.294216
 H         -49.935722     -136.737137      -42.181664
 H         -51.469032     -138.618225      -42.407780
 H         -52.642303     -137.575500      -42.946938
