20
 generated by VMD
 C         -49.545418     -127.581688      -39.469852
 N         -50.471489     -127.469551      -40.179771
 H         -46.937023     -127.376274      -42.491467
 H         -48.537643     -127.678299      -39.035282
 C         -46.311317     -126.549904      -42.028160
 C         -45.641514     -127.236450      -40.743725
 C         -46.661385     -125.078766      -42.054111
 C         -44.503689     -126.333244      -40.344658
 C         -45.411232     -124.326500      -41.531338
 C         -44.705624     -124.843269      -40.352993
 H         -45.135174     -128.199585      -40.879528
 H         -46.412048     -127.199310      -39.941223
 H         -46.767475     -124.775658      -43.112976
 H         -47.490131     -124.865211      -41.427547
 H         -43.664440     -126.445984      -41.069115
 H         -44.161613     -126.755890      -39.375385
 H         -45.670990     -123.173660      -41.454014
 H         -44.650383     -124.381912      -42.386833
 H         -43.711063     -124.311722      -40.352997
 H         -45.103111     -124.530983      -39.421207
