20
 generated by VMD
 C          -2.532782       -8.699269       -0.487706
 N          -1.469520       -8.462416       -0.209963
 H          -3.198122       -9.675587        2.844453
 H          -1.888043      -10.656761        3.485427
 C          -2.957085      -10.664071        3.190885
 C          -3.283171      -11.649557        2.059150
 C          -3.745435      -10.930520        4.435118
 C          -3.319579      -13.132994        2.527908
 C          -3.684129      -12.408077        4.961572
 C          -4.164151      -13.298431        3.766606
 H          -2.655212      -11.459703        1.165019
 H          -4.306695      -11.416941        1.767051
 H          -3.441145      -10.293162        5.324337
 H          -4.802364      -10.622380        4.314750
 H          -2.266105      -13.424253        2.628067
 H          -3.737320      -13.698631        1.675957
 H          -4.289601      -12.551562        5.898952
 H          -2.663597      -12.753149        5.156313
 H          -4.355488      -14.339419        4.063868
 H          -5.174739      -12.973049        3.475896
