20
 generated by VMD
 C         -68.358894     -185.667526      -67.073700
 N         -67.943230     -184.619156      -67.410126
 H         -69.018204     -188.539154      -64.671661
 H         -68.838860     -186.594620      -66.697220
 C         -69.459045     -187.956848      -63.851181
 C         -69.212341     -186.450623      -63.575371
 C         -70.390465     -188.714966      -62.977730
 C         -69.378265     -186.104416      -62.093334
 C         -70.663902     -188.106995      -61.595280
 C         -70.769737     -186.614136      -61.597126
 H         -69.927292     -185.794571      -64.215668
 H         -68.121780     -186.240692      -63.825489
 H         -71.361580     -188.552979      -63.444000
 H         -70.103004     -189.799789      -62.845497
 H         -69.263840     -185.084290      -61.802254
 H         -68.511131     -186.549759      -61.480778
 H         -69.873596     -188.501877      -60.918873
 H         -71.625809     -188.528580      -61.210537
 H         -71.711349     -186.308136      -62.056015
 H         -70.823311     -186.160294      -60.646976
