20
 generated by VMD
 C         -29.693842      -87.916534      -25.161234
 N         -29.043056      -88.789093      -25.528002
 H         -31.310860      -89.568016      -27.721518
 H         -30.429613      -87.105820      -24.951939
 C         -32.376503      -89.759758      -27.540607
 C         -32.839947      -89.628235      -26.114788
 C         -33.459496      -89.458733      -28.541954
 C         -33.421215      -88.268860      -25.792768
 C         -34.091576      -88.184814      -28.183268
 C         -34.591557      -88.089706      -26.745327
 H         -32.045288      -89.859070      -25.395922
 H         -33.491875      -90.495743      -25.851772
 H         -33.122963      -89.310287      -29.558094
 H         -34.244030      -90.258293      -28.492426
 H         -32.737530      -87.372536      -26.085857
 H         -33.861713      -88.133759      -24.786203
 H         -34.921852      -87.976555      -28.897882
 H         -33.322395      -87.462753      -28.277742
 H         -35.366467      -87.382706      -26.580486
 H         -35.263153      -88.949257      -26.597031
