20
 generated by VMD
 C         -68.093590     -179.082031      -58.285267
 N         -67.108757     -178.598770      -57.877880
 H         -65.707596     -176.314590      -58.714062
 H         -68.934456     -179.677017      -58.663925
 C         -65.358093     -175.795944      -59.638790
 C         -66.159897     -174.762314      -60.241009
 C         -63.851677     -175.887634      -59.644505
 C         -65.367867     -173.359116      -60.277203
 C         -63.102337     -174.605652      -59.696140
 C         -63.841915     -173.577774      -60.584026
 H         -67.109901     -174.684433      -59.764278
 H         -66.226524     -175.039902      -61.325222
 H         -63.557991     -176.349442      -58.721653
 H         -63.508389     -176.570648      -60.373444
 H         -65.409607     -172.914169      -59.197330
 H         -65.973228     -172.594055      -60.877388
 H         -62.091103     -174.907898      -60.102398
 H         -62.830917     -174.170166      -58.698853
 H         -63.352634     -172.665344      -60.281609
 H         -63.827320     -173.819382      -61.673798
