20
 generated by VMD
 C         -40.033596     -100.831543      -31.796398
 N         -40.979702     -100.479424      -31.196299
 H         -37.643719     -103.753181      -32.222393
 H         -39.240936     -100.972153      -32.585136
 C         -37.079468     -102.901726      -31.780664
 C         -35.974312     -102.344971      -32.819981
 C         -37.027695     -102.418983      -30.419434
 C         -35.334297     -100.979324      -32.515129
 C         -36.664562     -100.944183      -30.326235
 C         -35.283958     -100.552208      -31.028019
 H         -36.396320     -102.293503      -33.801716
 H         -35.125858     -103.064438      -32.863571
 H         -38.069962     -102.445511      -30.014215
 H         -36.383827     -103.046417      -29.909082
 H         -35.917049     -100.062653      -32.836105
 H         -34.329079     -100.821449      -32.881863
 H         -36.674984     -100.612793      -29.317142
 H         -37.509651     -100.328781      -30.857615
 H         -35.293640      -99.421799      -31.021818
 H         -34.342007     -100.970360      -30.621073
