20
 generated by VMD
 C         -13.079104      -28.673256       -5.773439
 N         -12.710614      -27.704855       -5.367874
 H         -11.343715      -31.136843       -3.317553
 H         -11.246885      -29.640642       -4.316762
 C         -10.681142      -30.392082       -3.759011
 C          -9.788445      -31.125643       -4.785291
 C          -9.867828      -29.804644       -2.701956
 C          -8.703809      -30.155827       -5.380473
 C          -8.653688      -28.950357       -3.132463
 C          -7.821820      -29.692621       -4.177285
 H         -10.316730      -31.522121       -5.617379
 H          -9.335839      -31.923483       -4.108385
 H         -10.529264      -29.131872       -2.154401
 H          -9.478496      -30.529028       -2.005660
 H          -9.150774      -29.253216       -5.858613
 H          -8.069696      -30.771322       -6.014326
 H          -8.049834      -28.778082       -2.270763
 H          -8.987432      -27.929640       -3.518525
 H          -7.071663      -28.951057       -4.583321
 H          -7.344048      -30.614517       -3.823110
