20
 generated by VMD
 C         -67.819382     -178.092773      -57.826897
 N         -67.129143     -178.687805      -57.082169
 H         -64.866318     -176.416946      -59.026073
 H         -68.458519     -177.582642      -58.498280
 C         -64.639252     -175.447052      -59.385674
 C         -65.775406     -174.589020      -59.830013
 C         -63.443508     -175.279861      -60.302040
 C         -65.377647     -173.140350      -59.682095
 C         -62.966026     -173.663498      -59.997707
 C         -64.129509     -172.801804      -60.471085
 H         -66.742050     -174.916962      -59.312210
 H         -66.028069     -174.766068      -60.855473
 H         -62.567772     -175.863464      -59.860195
 H         -63.587654     -175.414230      -61.368275
 H         -65.476883     -172.737564      -58.613228
 H         -66.285889     -172.602097      -60.141083
 H         -62.125927     -173.442322      -60.642517
 H         -62.540573     -173.571136      -58.934395
 H         -63.787270     -171.750275      -60.321205
 H         -64.424774     -172.944077      -61.566761
