20
 generated by VMD
 C         -60.205448     -171.141342      -55.318447
 N         -59.324642     -171.900116      -55.048347
 H         -63.227230     -170.357773      -56.216408
 H         -61.046444     -170.438629      -55.434574
 C         -63.377823     -169.476364      -56.848545
 C         -62.355846     -168.534775      -57.543037
 C         -64.813530     -169.060593      -56.690857
 C         -62.976566     -167.896469      -58.739883
 C         -65.407860     -168.420578      -57.893974
 C         -64.408783     -167.464966      -58.512737
 H         -61.594975     -169.079742      -57.869621
 H         -62.013577     -167.736710      -56.755619
 H         -65.471542     -169.989807      -56.576027
 H         -64.991562     -168.392136      -55.731876
 H         -62.955669     -168.500107      -59.642704
 H         -62.424164     -167.092545      -59.066143
 H         -66.294495     -167.745377      -57.617298
 H         -65.725906     -169.227417      -58.639782
 H         -64.732193     -167.132950      -59.533051
 H         -64.468170     -166.652405      -57.812313
