20
 generated by VMD
 C         -62.943985     -172.251938      -55.198692
 N         -62.501175     -173.346649      -55.145508
 H         -61.468552     -171.374649      -58.712124
 H         -63.447727     -171.295883      -55.118149
 C         -62.361324     -170.791962      -58.744965
 C         -62.324039     -169.409088      -58.041145
 C         -63.684704     -171.447845      -59.020390
 C         -63.686039     -168.651352      -57.961910
 C         -64.903114     -170.413376      -59.089127
 C         -65.049477     -169.367325      -57.935474
 H         -61.477486     -168.781250      -58.566746
 H         -61.991978     -169.660568      -57.117157
 H         -63.817215     -171.921234      -59.964699
 H         -63.930138     -172.108612      -58.153427
 H         -63.787876     -167.962738      -58.896183
 H         -63.595604     -167.967484      -57.031544
 H         -65.856361     -171.045670      -59.012589
 H         -64.794952     -169.916718      -60.092758
 H         -65.819115     -168.641739      -57.905914
 H         -65.116524     -169.911942      -57.024151
