20
 generated by VMD
 C         -30.997648      -77.700798      -25.288034
 N         -31.969479      -77.077774      -25.503475
 H         -29.246418      -76.964516      -22.478638
 H         -30.128361      -78.236298      -25.149597
 C         -28.556753      -77.781540      -22.228544
 C         -27.476833      -78.045204      -23.152863
 C         -29.062544      -78.898399      -21.376846
 C         -26.318184      -78.800087      -22.511253
 C         -27.882954      -79.687286      -20.895178
 C         -26.867609      -80.094398      -21.915110
 H         -27.128937      -77.143120      -23.711704
 H         -27.976316      -78.565666      -24.041229
 H         -29.738474      -78.572540      -20.578890
 H         -29.649918      -79.440926      -22.128717
 H         -25.916737      -78.097496      -21.746462
 H         -25.571899      -79.166344      -23.194626
 H         -28.163889      -80.753998      -20.541313
 H         -27.395000      -79.206047      -19.998695
 H         -26.025709      -80.455803      -21.318508
 H         -27.190285      -80.684433      -22.733624
