20
 generated by VMD
 C         -27.980366      -81.215225      -27.593269
 N         -29.135715      -81.232498      -27.479326
 H         -29.574697      -82.996674      -25.038506
 H         -26.899380      -81.199310      -27.402115
 C         -30.149757      -83.791374      -24.605278
 C         -30.227982      -83.975960      -23.056086
 C         -30.949049      -84.839096      -25.406256
 C         -31.631702      -84.388588      -22.495396
 C         -32.341187      -85.148064      -24.834351
 C         -32.176704      -85.452385      -23.352390
 H         -30.086567      -82.972992      -22.608486
 H         -29.586859      -84.671326      -22.631613
 H         -31.167826      -84.434830      -26.405609
 H         -30.217037      -85.651756      -25.388472
 H         -32.348541      -83.458244      -22.365915
 H         -31.653490      -84.680969      -21.493477
 H         -32.817921      -85.922142      -25.393085
 H         -33.010994      -84.257027      -25.075876
 H         -33.226982      -85.695389      -23.056049
 H         -31.619949      -86.374481      -23.276981
