20
 generated by VMD
 C         -56.108490     -149.787643      -47.636799
 N         -57.118374     -150.258331      -47.229939
 H         -53.440968     -148.014175      -47.345608
 H         -55.086494     -149.610474      -48.058125
 C         -53.837811     -147.813797      -48.378773
 C         -53.344788     -148.431595      -49.573853
 C         -54.559090     -146.573608      -48.534649
 C         -54.213634     -148.460251      -50.768742
 C         -55.490376     -146.550140      -49.686878
 C         -54.769077     -147.070694      -50.969669
 H         -52.744011     -149.296585      -49.096325
 H         -52.493176     -147.865570      -49.863216
 H         -55.228210     -146.254578      -47.700378
 H         -53.864738     -145.772476      -48.553089
 H         -54.925457     -149.316666      -50.802265
 H         -53.502594     -148.683090      -51.567978
 H         -55.924614     -145.579269      -49.734283
 H         -56.358715     -147.206375      -49.519032
 H         -55.427307     -147.144302      -51.859467
 H         -53.944889     -146.437393      -51.307507
