20
 generated by VMD
 C         -47.595928     -139.401352      -45.797577
 N         -46.685608     -138.860687      -46.396275
 H         -50.843689     -138.372131      -44.834530
 H         -48.402534     -139.989899      -45.380363
 C         -51.726967     -138.872635      -45.233067
 C         -51.828762     -139.309937      -46.650658
 C         -53.094898     -138.732132      -44.415703
 C         -53.057007     -140.325851      -46.937679
 C         -54.197556     -139.652771      -44.804165
 C         -54.384068     -139.835526      -46.370056
 H         -50.824760     -139.726669      -47.080154
 H         -51.954952     -138.392410      -47.269672
 H         -52.785652     -138.713913      -43.352505
 H         -53.575901     -137.741516      -44.543110
 H         -52.762577     -141.345963      -46.544197
 H         -53.218655     -140.446930      -48.011539
 H         -55.127686     -139.330948      -44.341099
 H         -54.113403     -140.744415      -44.285503
 H         -55.207512     -140.522934      -46.500557
 H         -54.733772     -139.060440      -46.889236
