20
 generated by VMD
 C         -19.547100      -62.317696      -17.637453
 N         -20.079216      -62.178249      -16.579727
 H         -22.082275      -64.318230      -16.660944
 H         -18.850805      -62.305969      -18.381863
 C         -23.093746      -64.634407      -17.024368
 C         -23.540621      -64.165947      -18.394522
 C         -24.160908      -65.233414      -16.207918
 C         -24.577944      -65.129845      -19.077353
 C         -25.221678      -66.070740      -16.911968
 C         -25.768377      -65.460312      -18.186003
 H         -22.627703      -64.255470      -19.143610
 H         -23.895018      -63.046078      -18.315306
 H         -23.693546      -65.811935      -15.363826
 H         -24.597710      -64.365524      -15.737014
 H         -24.051577      -66.035950      -19.381359
 H         -24.852182      -64.610161      -20.007624
 H         -26.039671      -65.976349      -16.197767
 H         -24.787239      -67.078537      -17.022318
 H         -26.556858      -66.072189      -18.684063
 H         -26.179247      -64.508369      -17.998787
