20
 generated by VMD
 C         -47.906418     -134.054688      -47.563526
 N         -48.100948     -133.408463      -48.565536
 H         -49.546532     -134.031876      -43.956547
 H         -48.052929     -134.866669      -46.821533
 C         -50.126984     -134.958511      -43.776665
 C         -50.264290     -136.195221      -44.553276
 C         -51.077003     -134.803680      -42.553577
 C         -50.581989     -137.480606      -43.796783
 C         -51.438095     -136.098099      -41.803383
 C         -51.704586     -137.299957      -42.705193
 H         -49.259987     -136.372665      -45.142246
 H         -51.023670     -135.939133      -45.288284
 H         -50.460567     -134.085251      -41.932404
 H         -51.953518     -134.265106      -42.823631
 H         -49.675503     -137.790192      -43.290016
 H         -50.799210     -138.264587      -44.570862
 H         -52.369339     -136.016190      -41.208405
 H         -50.539127     -136.274338      -41.129036
 H         -51.971405     -138.168030      -42.114235
 H         -52.666924     -137.082840      -43.180256
