20
 generated by VMD
 C         -66.334976     -189.640488      -66.736397
 N         -66.369453     -189.176941      -67.777466
 H         -69.945145     -190.077972      -65.238159
 H         -66.318657     -190.256668      -65.869308
 C         -70.522484     -189.769257      -64.370293
 C         -71.834274     -190.651886      -64.078003
 C         -70.517448     -188.471741      -63.683678
 C         -73.058487     -189.879242      -63.829727
 C         -71.827034     -187.710205      -63.781120
 C         -72.880562     -188.506729      -63.116482
 H         -71.653580     -191.193176      -63.101795
 H         -71.917923     -191.332855      -65.003281
 H         -70.172768     -188.563522      -62.660683
 H         -69.688667     -187.734116      -64.138336
 H         -73.740021     -190.449966      -63.228275
 H         -73.580734     -189.765305      -64.787781
 H         -71.932030     -187.468231      -64.831276
 H         -71.834641     -186.704605      -63.395153
 H         -72.697693     -188.652893      -62.015923
 H         -73.796730     -187.819290      -63.347073
