20
 generated by VMD
 C         -64.774323     -175.397568      -55.841705
 N         -64.060486     -176.003418      -56.537189
 H         -65.480530     -174.327896      -58.925674
 H         -65.515572     -174.894836      -55.230625
 C         -64.943069     -173.339996      -59.026814
 C         -65.306129     -172.184677      -58.253468
 C         -64.022568     -173.329346      -60.053913
 C         -64.417732     -170.901855      -58.348495
 C         -63.110363     -172.113144      -60.116051
 C         -63.921028     -170.748138      -59.811565
 H         -65.294876     -172.632507      -57.320324
 H         -66.406151     -172.024368      -58.579315
 H         -63.318264     -174.244949      -59.940819
 H         -64.619812     -173.414108      -60.979774
 H         -63.633667     -170.915054      -57.662048
 H         -64.988731     -170.069931      -58.065845
 H         -62.697796     -172.024979      -61.129513
 H         -62.281384     -172.380737      -59.457874
 H         -63.193066     -169.901062      -59.953259
 H         -64.680344     -170.537491      -60.580986
