20
 generated by VMD
 C         -10.073038      -36.210629       -7.188513
 N         -10.027285      -36.852882       -8.101707
 H         -13.380695      -38.258919       -7.857825
 H         -14.580309      -38.746792       -6.782696
 C         -14.144067      -38.935711       -7.724021
 C         -13.605264      -40.361259       -7.694882
 C         -15.271142      -38.886135       -8.749402
 C         -14.623284      -41.406662       -7.499313
 C         -16.277912      -39.945988       -8.624207
 C         -15.719144      -41.370354       -8.527308
 H         -12.789870      -40.508095       -6.995644
 H         -13.015697      -40.456635       -8.599650
 H         -15.786683      -37.904064       -8.818916
 H         -14.791148      -38.960308       -9.758960
 H         -15.037817      -41.384415       -6.436877
 H         -14.170630      -42.411251       -7.521376
 H         -16.975206      -39.972473       -9.488521
 H         -16.895590      -39.830322       -7.741395
 H         -16.529001      -42.031109       -8.261723
 H         -15.372830      -41.657410       -9.525958
