20
 generated by VMD
 C         -50.874443     -130.831848      -46.365517
 N         -50.309723     -130.742584      -47.314056
 H         -48.280346     -131.857391      -44.319954
 H         -51.716465     -130.793335      -45.770885
 C         -48.326168     -132.298141      -43.351997
 C         -48.897808     -133.679230      -43.081303
 C         -48.340446     -131.377914      -42.225842
 C         -48.433521     -134.296417      -41.782589
 C         -47.875744     -132.037582      -40.963287
 C         -48.593529     -133.297256      -40.528114
 H         -48.557224     -134.384567      -43.919167
 H         -49.940083     -133.671173      -42.947407
 H         -47.657578     -130.528214      -42.639469
 H         -49.396599     -131.038116      -42.125790
 H         -47.382648     -134.486649      -41.816864
 H         -48.937771     -135.166031      -41.422947
 H         -47.839813     -131.340256      -40.179901
 H         -46.767471     -132.233337      -41.036301
 H         -48.150497     -133.653839      -39.599674
 H         -49.655067     -132.966675      -40.476028
