20
 generated by VMD
 C         -49.329529     -132.592316      -46.882244
 N         -50.194260     -131.884384      -47.138222
 H         -47.599728     -134.169403      -44.184975
 H         -48.561069     -133.305496      -46.928715
 C         -48.481289     -134.546448      -43.610016
 C         -49.092335     -135.887909      -43.832237
 C         -49.324627     -133.468857      -43.079067
 C         -49.926861     -136.333237      -42.681046
 C         -50.163307     -133.937225      -41.904495
 C         -50.903980     -135.275330      -42.198746
 H         -48.303471     -136.657516      -44.082603
 H         -49.771427     -135.817352      -44.726921
 H         -48.672977     -132.749619      -42.666843
 H         -49.828613     -133.091949      -43.904396
 H         -49.255463     -136.730103      -41.858898
 H         -50.474236     -137.194290      -43.049416
 H         -50.784260     -133.131668      -41.439396
 H         -49.410870     -134.283997      -41.095097
 H         -51.492741     -135.838730      -41.408924
 H         -51.555370     -135.145477      -42.997501
