20
 generated by VMD
 C         -39.258804      -98.997047      -28.021212
 N         -38.655880      -99.940582      -27.716835
 H         -37.031937      -98.743645      -30.482912
 H         -39.895988      -98.164062      -28.443022
 C         -36.384254      -97.978386      -30.766073
 C         -35.730274      -98.315041      -32.119576
 C         -35.563370      -97.514015      -29.509495
 C         -34.427155      -97.552032      -32.296227
 C         -34.457848      -96.530167      -30.021109
 C         -33.583874      -97.354744      -31.026018
 H         -36.432831      -97.807449      -32.807880
 H         -35.783985      -99.371735      -32.236160
 H         -36.263103      -97.148972      -28.717623
 H         -35.091537      -98.368217      -29.068945
 H         -34.674068      -96.594788      -32.688755
 H         -33.886002      -98.190651      -33.056923
 H         -33.832321      -96.171814      -29.135801
 H         -34.831841      -95.647118      -30.512936
 H         -32.683395      -96.757248      -31.228418
 H         -33.259521      -98.418648      -30.773233
