20
 generated by VMD
 C         -30.683212      -75.194756      -22.744373
 N         -31.302841      -75.389191      -21.741110
 H         -28.788982      -77.525017      -21.614439
 H         -30.081436      -74.824669      -23.634016
 C         -27.823008      -77.076775      -21.633522
 C         -26.677984      -77.826820      -22.107611
 C         -27.468485      -75.967583      -20.706633
 C         -25.843460      -76.830429      -23.014818
 C         -26.613123      -74.977890      -21.391243
 C         -25.490589      -75.715172      -22.097954
 H         -26.894032      -78.665436      -22.737759
 H         -26.208759      -78.338852      -21.359951
 H         -28.339161      -75.506645      -20.408609
 H         -26.912731      -76.365662      -19.838955
 H         -26.459198      -76.493874      -23.897606
 H         -24.905756      -77.314301      -23.359222
 H         -26.338688      -74.172798      -20.729179
 H         -27.226797      -74.424202      -22.139452
 H         -25.098520      -74.957741      -22.788311
 H         -24.571541      -75.794785      -21.467331
