20
 generated by VMD
 C         -20.184473      -56.748158      -16.893440
 N         -20.969467      -56.446335      -16.128298
 H         -22.320187      -59.862263      -17.810104
 H         -19.739889      -57.078968      -17.842319
 C         -22.153078      -60.188705      -16.805540
 C         -22.669258      -59.558956      -15.529212
 C         -21.882259      -61.643162      -16.701262
 C         -21.900642      -59.840351      -14.233685
 C         -20.918324      -61.934673      -15.619099
 C         -21.352160      -61.332726      -14.203590
 H         -23.619804      -60.058300      -15.413579
 H         -22.828938      -58.485401      -15.654533
 H         -22.847366      -62.048069      -16.415783
 H         -21.565039      -62.219090      -17.587788
 H         -22.503613      -59.590195      -13.344894
 H         -21.047445      -59.155521      -14.227436
 H         -19.951946      -61.380249      -15.693838
 H         -20.764502      -63.047558      -15.533452
 H         -22.180763      -61.983910      -13.898591
 H         -20.599054      -61.553394      -13.404622
