20
 generated by VMD
 C         -29.466808      -87.987389      -24.947449
 N         -28.906111      -88.256737      -25.955135
 H         -31.332268      -89.037209      -27.657185
 H         -30.036423      -87.589378      -24.172146
 C         -32.298893      -89.481720      -27.382566
 C         -32.798996      -89.504135      -25.923691
 C         -33.345287      -89.477707      -28.354155
 C         -33.483017      -88.097244      -25.696878
 C         -34.144684      -88.067802      -28.149288
 C         -34.624809      -87.943047      -26.713432
 H         -31.895594      -89.631378      -25.335003
 H         -33.561150      -90.353165      -25.856070
 H         -33.066238      -89.312469      -29.351219
 H         -33.973286      -90.360497      -28.387253
 H         -32.609581      -87.324440      -25.724970
 H         -33.803806      -88.047882      -24.633318
 H         -34.995708      -87.943497      -28.858232
 H         -33.492992      -87.264458      -28.446747
 H         -34.905430      -86.917839      -26.535521
 H         -35.374748      -88.709290      -26.495897
