20
 generated by VMD
 C          -9.316535      -24.664291        0.958216
 N          -9.916401      -25.370197        1.599260
 H          -6.752751      -23.072765       -0.650386
 H          -8.323716      -22.693066       -1.272534
 C          -7.302733      -23.031111       -1.658976
 C          -7.455272      -24.400845       -2.379673
 C          -6.553781      -21.983665       -2.461774
 C          -8.007017      -24.129856       -3.793912
 C          -7.082111      -21.813187       -3.871678
 C          -7.188034      -23.117119       -4.570842
 H          -8.251722      -24.962612       -1.890247
 H          -6.475546      -24.898590       -2.372882
 H          -6.683146      -21.058977       -1.934266
 H          -5.465662      -22.244822       -2.447402
 H          -9.057034      -23.755800       -3.685738
 H          -7.924311      -25.105293       -4.381189
 H          -6.335280      -21.196789       -4.394645
 H          -8.064116      -21.275352       -3.934355
 H          -7.669891      -22.881548       -5.483808
 H          -6.235139      -23.542261       -4.873751
