20
 generated by VMD
 C         -50.681908     -129.924011      -45.178024
 N         -51.205017     -129.291061      -44.377552
 H         -49.152050     -129.333420      -42.696384
 H         -50.111649     -130.343536      -45.989704
 C         -48.262783     -129.468277      -42.170513
 C         -47.997948     -130.729218      -41.437519
 C         -47.475807     -128.346497      -41.424194
 C         -46.452641     -131.087463      -41.217674
 C         -46.012424     -128.619995      -41.220707
 C         -45.742783     -129.967804      -40.486523
 H         -48.479900     -131.534790      -41.949795
 H         -48.468048     -130.656830      -40.418427
 H         -47.691181     -127.405380      -41.994045
 H         -47.997410     -128.311340      -40.523888
 H         -46.095463     -131.404053      -42.214447
 H         -46.343388     -132.068039      -40.672676
 H         -45.622890     -127.713104      -40.710606
 H         -45.602478     -128.698502      -42.207294
 H         -44.634106     -130.078262      -40.449013
 H         -46.098919     -129.807648      -39.465115
