20
 generated by VMD
 C         -12.184508      -31.471867       -8.631132
 N         -12.298589      -30.643850       -7.919561
 H         -11.029398      -34.854111       -7.767290
 H         -12.210154      -33.983803       -6.890710
 C         -11.531543      -34.789944       -6.804214
 C         -10.568933      -34.361008       -5.763729
 C         -12.272447      -36.119453       -6.504665
 C         -11.147367      -34.243164       -4.413189
 C         -12.917482      -35.877911       -5.079576
 C         -11.898998      -35.524467       -3.982049
 H         -10.095681      -33.468479       -6.081211
 H          -9.720820      -35.081917       -5.688565
 H         -13.019889      -36.308899       -7.267065
 H         -11.595876      -36.976925       -6.430415
 H         -11.826659      -33.366920       -4.466002
 H         -10.357625      -34.035637       -3.711472
 H         -13.533916      -36.705391       -4.833381
 H         -13.657624      -34.996834       -5.236586
 H         -12.431167      -35.285946       -3.062540
 H         -11.139600      -36.332138       -3.767993
