20
 generated by VMD
 C         -23.140766      -52.986355      -12.658861
 N         -22.842489      -52.606297      -13.673130
 H         -20.626495      -54.436172      -13.913501
 H         -23.352858      -53.571537      -11.862484
 C         -19.551220      -54.402390      -13.742634
 C         -18.984049      -53.045387      -14.230087
 C         -18.495932      -55.469379      -13.807200
 C         -17.702400      -52.757565      -13.336200
 C         -17.104250      -55.168472      -13.116345
 C         -16.570257      -53.752449      -13.393644
 H         -19.748272      -52.282043      -14.151228
 H         -18.619417      -53.135376      -15.260519
 H         -18.840433      -56.394829      -13.301706
 H         -18.255350      -55.664104      -14.809669
 H         -17.962296      -52.603569      -12.297122
 H         -17.211679      -51.834713      -13.688344
 H         -16.326210      -55.938263      -13.434475
 H         -17.220037      -55.298492      -12.076004
 H         -15.763580      -53.401665      -12.658884
 H         -16.143663      -53.854683      -14.435707
