20
 generated by VMD
 C         -49.549999     -131.836578      -46.523582
 N         -50.180038     -132.455414      -47.195877
 H         -47.842228     -133.488663      -44.412609
 H         -49.140949     -131.151764      -45.765934
 C         -48.699036     -133.739761      -43.834976
 C         -49.254055     -135.095871      -43.993942
 C         -49.022728     -132.852173      -42.661564
 C         -49.589733     -135.830093      -42.723389
 C         -49.467800     -133.638611      -41.405258
 C         -50.311920     -134.889801      -41.749146
 H         -48.455509     -135.674408      -44.461388
 H         -50.082180     -135.110245      -44.659534
 H         -48.117680     -132.095245      -42.455826
 H         -49.942863     -132.256683      -42.907070
 H         -48.757191     -136.095062      -42.067142
 H         -50.174335     -136.743042      -42.831169
 H         -50.003510     -133.062469      -40.688965
 H         -48.572910     -133.877670      -40.813011
 H         -50.471909     -135.351257      -40.732841
 H         -51.127415     -134.491776      -42.179485
