20
 generated by VMD
 C         -13.224645      -29.764095       -7.401671
 N         -13.606261      -29.225319       -8.304981
 H         -11.623410      -30.492882       -4.937925
 H         -10.288031      -30.180967       -3.724629
 C         -10.786370      -30.910656       -4.442599
 C          -9.747937      -31.456467       -5.416918
 C         -11.373720      -31.997225       -3.531127
 C          -8.696957      -32.429276       -4.895379
 C         -10.401664      -33.089367       -3.087840
 C          -9.447552      -33.611282       -4.201333
 H          -9.177062      -30.635271       -5.984523
 H         -10.352764      -31.933147       -6.198100
 H         -11.783717      -31.562477       -2.615284
 H         -12.194345      -32.465553       -4.114355
 H          -8.076120      -31.975149       -4.149794
 H          -8.111628      -32.791065       -5.740428
 H         -10.927296      -33.937313       -2.591069
 H          -9.832758      -32.588352       -2.285890
 H          -8.679868      -34.240639       -3.728158
 H         -10.103581      -34.096874       -4.941847
