20
 generated by VMD
 C         -78.217194     -204.296860      -69.365440
 N         -79.075470     -203.785751      -70.005272
 H         -76.075256     -202.643478      -67.889023
 H         -77.466568     -204.689880      -68.644623
 C         -75.317184     -202.218536      -68.435776
 C         -75.451431     -200.938126      -69.121681
 C         -74.230698     -203.072769      -69.068321
 C         -74.863953     -200.934067      -70.560181
 C         -72.944489     -202.235931      -69.504196
 C         -73.366661     -201.092453      -70.571083
 H         -74.953743     -200.110031      -68.620132
 H         -76.529556     -200.674026      -69.191719
 H         -73.944313     -203.751694      -68.323135
 H         -74.589714     -203.454910      -70.057350
 H         -75.046700     -199.981552      -71.009308
 H         -75.401970     -201.582306      -71.292259
 H         -72.150833     -202.967361      -69.792549
 H         -72.636574     -201.578964      -68.658180
 H         -72.736168     -200.035767      -70.507217
 H         -73.182022     -201.501785      -71.617363
