20
 generated by VMD
 C         -22.433111      -55.509541      -16.430286
 N         -23.195898      -54.617390      -16.218588
 H         -19.901960      -55.751610      -15.726254
 H         -21.966515      -56.625019      -16.195492
 C         -19.893690      -56.617706      -15.083093
 C         -20.503477      -56.532593      -13.751373
 C         -18.561239      -57.474548      -15.124866
 C         -20.936678      -57.979816      -13.476533
 C         -19.000225      -58.870224      -14.718697
 C         -19.726112      -58.866566      -13.365242
 H         -21.231819      -55.778671      -13.712111
 H         -19.754955      -56.282387      -13.038911
 H         -18.024342      -57.481152      -16.028173
 H         -17.899662      -57.153591      -14.283404
 H         -21.576267      -58.389324      -14.249353
 H         -21.515169      -57.862896      -12.534293
 H         -18.095865      -59.470791      -14.586180
 H         -19.552778      -59.411251      -15.552474
 H         -19.966347      -59.894077      -13.103254
 H         -18.974684      -58.450012      -12.617922
