20
 generated by VMD
 C         -70.556969     -196.796021      -66.316879
 N         -69.707626     -196.203674      -65.838112
 H         -73.484962     -194.873535      -64.499229
 H         -71.537437     -197.193787      -66.667915
 C         -73.479431     -194.549286      -65.511589
 C         -72.439438     -193.599197      -66.053551
 C         -74.236214     -195.349670      -66.492348
 C         -72.914795     -192.863052      -67.255295
 C         -73.540222     -195.189011      -67.955719
 C         -73.445427     -193.732681      -68.381660
 H         -71.429359     -194.160645      -66.144981
 H         -72.040886     -192.959396      -65.269936
 H         -74.263374     -196.403412      -66.378807
 H         -75.159309     -194.896210      -66.708122
 H         -72.266937     -192.079163      -67.642769
 H         -73.732826     -192.232849      -66.935982
 H         -74.156357     -195.753510      -68.651184
 H         -72.561760     -195.715378      -68.040215
 H         -72.805092     -193.695709      -69.227180
 H         -74.522163     -193.448792      -68.850990
