20
 generated by VMD
 C         -40.130692     -104.774460      -36.375130
 N         -39.454388     -104.208344      -37.118462
 H         -40.183239     -108.352837      -35.291759
 H         -40.946693     -105.283562      -35.838047
 C         -39.853024     -108.474953      -34.250668
 C         -38.800999     -107.541389      -33.757999
 C         -40.167557     -109.746925      -33.468124
 C         -38.919621     -107.318321      -32.255814
 C         -40.248745     -109.446495      -32.059788
 C         -39.065258     -108.577957      -31.365612
 H         -38.908279     -106.603928      -34.279408
 H         -37.805336     -107.955429      -33.998600
 H         -41.170612     -110.140152      -33.808975
 H         -39.352840     -110.464737      -33.777969
 H         -39.826778     -106.667274      -32.060635
 H         -38.000355     -106.698135      -32.053684
 H         -40.245163     -110.507828      -31.639992
 H         -41.202251     -109.153351      -31.653896
 H         -39.306004     -108.258858      -30.279255
 H         -38.025864     -109.093529      -31.283924
