20
 generated by VMD
 C         -40.504513     -117.223694      -34.513721
 N         -39.492184     -116.760262      -34.813953
 H         -41.699074     -116.507362      -37.389214
 H         -41.520226     -117.543503      -34.267921
 C         -42.692360     -116.480095      -37.728733
 C         -42.974567     -116.321663      -39.209427
 C         -43.705551     -116.108620      -36.706177
 C         -44.320084     -116.967178      -39.522411
 C         -44.906628     -116.975761      -36.999184
 C         -45.402924     -116.709862      -38.417332
 H         -42.119541     -116.792625      -39.738754
 H         -43.069023     -115.272484      -39.548000
 H         -43.357635     -116.126495      -35.602509
 H         -43.965042     -115.017433      -36.775547
 H         -44.305088     -118.015297      -39.659237
 H         -44.704861     -116.459160      -40.435329
 H         -45.669178     -116.621712      -36.257256
 H         -44.651428     -117.985809      -36.525108
 H         -46.289303     -117.377579      -38.805031
 H         -45.665585     -115.525414      -38.484276
