20
 generated by VMD
 C         -66.004730     -177.809937      -56.902584
 N         -66.748207     -176.974319      -57.175056
 H         -64.361092     -175.723709      -58.773365
 H         -65.306564     -178.560928      -56.662525
 C         -64.380287     -174.724854      -59.110157
 C         -65.650169     -173.951447      -59.205860
 C         -63.481098     -174.479248      -60.317974
 C         -65.143631     -172.441544      -58.968704
 C         -63.185589     -172.966858      -60.384327
 C         -64.320107     -172.051102      -60.201942
 H         -66.332138     -174.346420      -58.344028
 H         -66.256912     -174.051849      -60.071362
 H         -62.627487     -175.144302      -60.156498
 H         -63.836639     -174.930450      -61.237259
 H         -64.580322     -172.195923      -57.980389
 H         -66.071579     -171.785583      -58.948788
 H         -62.755104     -172.677765      -61.307625
 H         -62.328651     -172.804886      -59.651829
 H         -64.129448     -170.975311      -60.119904
 H         -65.044685     -172.104446      -61.060585
