20
 generated by VMD
 C         -38.511173     -111.584999      -36.054420
 N         -38.444401     -110.873177      -36.973640
 H         -40.463310     -114.703735      -35.073048
 H         -38.723164     -111.993126      -35.085773
 C         -41.378567     -114.304260      -35.264416
 C         -41.842167     -114.522537      -36.654934
 C         -42.222080     -113.455666      -34.349373
 C         -43.305408     -114.280487      -37.019985
 C         -43.751621     -113.099243      -34.777481
 C         -43.902409     -113.021194      -36.281326
 H         -41.586349     -115.583771      -37.051552
 H         -41.196293     -113.755356      -37.175335
 H         -42.253849     -113.847450      -33.299694
 H         -41.619560     -112.555367      -34.214439
 H         -43.917122     -115.194725      -36.623165
 H         -43.582474     -114.214447      -38.059799
 H         -43.944542     -112.210899      -34.315197
 H         -44.274944     -113.940590      -34.482441
 H         -44.952507     -112.923286      -36.649708
 H         -43.384251     -112.270836      -36.862339
