20
 generated by VMD
 C         -29.774532      -79.713356      -26.436869
 N         -30.332977      -78.853264      -25.844366
 H         -28.513981      -82.985527      -25.689966
 H         -29.350193      -80.504105      -27.047319
 C         -29.140240      -82.970581      -24.736559
 C         -28.636755      -81.926804      -23.695570
 C         -30.001383      -84.180740      -24.303831
 C         -29.812258      -81.592094      -22.771482
 C         -31.051622      -83.729523      -23.364607
 C         -30.609108      -82.845688      -22.277464
 H         -28.223724      -80.992111      -24.102108
 H         -27.916889      -82.390694      -22.989618
 H         -30.450106      -84.681740      -25.108948
 H         -29.308016      -84.890350      -23.772705
 H         -30.574440      -80.881218      -23.270903
 H         -29.385296      -80.882294      -21.963850
 H         -31.531279      -84.528084      -22.912310
 H         -31.905071      -83.172157      -23.833698
 H         -31.535601      -82.553467      -21.744181
 H         -29.879408      -83.371185      -21.621376
