20
 generated by VMD
 C         -58.465160     -168.498810      -54.955517
 N         -57.342098     -168.626404      -54.937027
 H         -61.897068     -168.193420      -55.491425
 H         -59.521774     -168.351608      -54.863899
 C         -62.437435     -167.502609      -56.182659
 C         -62.650158     -167.710388      -57.647964
 C         -62.887875     -166.183746      -55.666187
 C         -64.144417     -167.572220      -57.935749
 C         -64.386383     -165.935577      -55.968193
 C         -64.648590     -166.235352      -57.490086
 H         -62.198856     -168.629242      -57.800312
 H         -62.059368     -166.969086      -58.195988
 H         -62.704025     -166.253693      -54.609867
 H         -62.070335     -165.439377      -56.086895
 H         -64.627647     -168.416901      -57.417961
 H         -64.257629     -167.702896      -58.996029
 H         -64.795013     -164.976059      -55.731678
 H         -64.973381     -166.515121      -55.415070
 H         -65.734383     -166.309891      -57.662312
 H         -64.321091     -165.389328      -58.062302
