20
 generated by VMD
 C         -78.129311     -204.240021      -69.555634
 N         -79.027779     -203.715240      -69.978973
 H         -76.077118     -202.882385      -67.865608
 H         -77.316696     -204.721313      -68.974533
 C         -75.517944     -202.493988      -68.632706
 C         -75.732727     -201.182312      -69.320320
 C         -74.243073     -203.156174      -68.914268
 C         -74.810143     -200.968124      -70.642563
 C         -73.021011     -202.416550      -69.557816
 C         -73.380272     -201.248138      -70.442879
 H         -75.470390     -200.382797      -68.584526
 H         -76.767876     -201.067719      -69.534988
 H         -73.887520     -203.644974      -67.981651
 H         -74.341499     -204.073395      -69.563248
 H         -74.796196     -199.914093      -70.969688
 H         -75.182114     -201.652786      -71.466446
 H         -72.546867     -203.235382      -70.089073
 H         -72.401947     -201.970642      -68.811478
 H         -73.027626     -200.363281      -70.048111
 H         -72.886276     -201.297836      -71.441002
