20
 generated by VMD
 C          -2.300519      -17.946196        2.341984
 N          -1.741296      -17.028131        2.638370
 H          -5.298145      -17.849352        0.916055
 H          -5.034230      -19.165857       -0.308383
 C          -5.788355      -18.412111        0.081629
 C          -6.050882      -17.243153       -0.888644
 C          -7.084027      -19.012411        0.557273
 C          -6.781825      -17.655128       -2.160254
 C          -7.924668      -19.420273       -0.681458
 C          -8.118526      -18.379927       -1.833198
 H          -5.069664      -16.935795       -1.086843
 H          -6.545889      -16.439434       -0.287572
 H          -6.862114      -19.933916        1.019735
 H          -7.660727      -18.274860        1.071230
 H          -6.186337      -18.448130       -2.643155
 H          -7.028475      -16.769014       -2.831167
 H          -8.912107      -19.763151       -0.342844
 H          -7.361475      -20.284660       -1.165410
 H          -8.476060      -18.943537       -2.734981
 H          -8.882021      -17.646875       -1.584273
