20
 generated by VMD
 C         -19.413002      -63.691055      -16.577503
 N         -20.168734      -62.999050      -17.139048
 H         -22.964224      -63.756901      -17.184717
 H         -18.762350      -64.559830      -16.115381
 C         -23.743938      -64.458168      -17.476431
 C         -24.408945      -64.168495      -18.873173
 C         -24.645947      -65.082733      -16.464800
 C         -24.749105      -65.524063      -19.491735
 C         -24.783146      -66.465225      -17.032070
 C         -25.426481      -66.421158      -18.385557
 H         -23.665209      -63.651230      -19.619390
 H         -25.423197      -63.732098      -18.700891
 H         -24.159962      -65.102463      -15.413342
 H         -25.535498      -64.542831      -16.226631
 H         -23.840376      -66.013107      -19.976540
 H         -25.556360      -65.371376      -20.230022
 H         -25.442192      -67.142891      -16.422876
 H         -23.811907      -66.948448      -17.144035
 H         -25.555130      -67.489220      -18.851515
 H         -26.473959      -66.208603      -18.188541
