20
 generated by VMD
 C         -20.014750      -50.098923       -9.561949
 N         -19.776237      -51.225311       -9.651418
 H         -16.754808      -48.253403       -9.983027
 H         -20.306377      -49.031132       -9.759499
 C         -16.875883      -48.506786      -10.995148
 C         -15.823714      -49.435806      -11.608931
 C         -17.337845      -47.536156      -11.995296
 C         -16.031666      -49.982662      -13.041649
 C         -17.887794      -48.273155      -13.233328
 C         -16.787806      -49.090836      -13.983842
 H         -15.673652      -50.269367      -10.897861
 H         -14.868518      -48.918686      -11.521209
 H         -18.105408      -46.978302      -11.510299
 H         -16.570143      -46.820004      -12.206679
 H         -16.591665      -50.949154      -13.049119
 H         -15.051193      -50.255798      -13.489947
 H         -18.378048      -47.446201      -13.893824
 H         -18.684473      -48.934898      -13.001542
 H         -17.167618      -49.724213      -14.801885
 H         -16.085657      -48.311287      -14.370091
