20
 generated by VMD
 C         -20.177464      -57.280865      -16.825739
 N         -19.166365      -57.415741      -17.376398
 H         -22.651266      -59.773575      -17.572971
 H         -21.013870      -57.292500      -15.994209
 C         -22.524744      -60.377975      -16.696550
 C         -23.788149      -61.023552      -16.226446
 C         -21.184216      -60.917068      -16.161039
 C         -23.820389      -62.021648      -15.130013
 C         -21.117952      -62.202423      -15.393456
 C         -22.451422      -62.477535      -14.636738
 H         -24.021683      -61.662228      -17.072065
 H         -24.514311      -60.286278      -16.055473
 H         -20.450891      -60.812920      -16.969765
 H         -20.903461      -60.127247      -15.449372
 H         -24.477245      -62.905949      -15.317870
 H         -24.428122      -61.612030      -14.311595
 H         -20.308765      -62.247490      -14.625255
 H         -21.003660      -62.877445      -16.258560
 H         -22.436651      -63.584423      -14.415668
 H         -22.264389      -62.018677      -13.656813
