20
 generated by VMD
 C         -61.552204     -154.599609      -53.950802
 N         -62.045769     -155.437698      -53.238770
 H         -58.062916     -154.527435      -52.293129
 H         -61.002224     -153.820129      -54.514370
 C         -57.140751     -154.612595      -51.718693
 C         -57.271442     -154.339493      -50.249271
 C         -55.868504     -154.509476      -52.479176
 C         -56.039227     -154.717987      -49.481731
 C         -54.735172     -154.880341      -51.537918
 C         -54.809372     -154.225723      -50.238380
 H         -58.132782     -155.030197      -49.828812
 H         -57.560406     -153.265152      -50.243080
 H         -55.909515     -155.225784      -53.295322
 H         -55.605633     -153.571198      -52.974010
 H         -56.240669     -155.777725      -49.392979
 H         -56.063251     -154.341812      -48.412083
 H         -53.748257     -154.571411      -51.994884
 H         -54.655010     -155.983704      -51.571739
 H         -53.895168     -154.555847      -49.604019
 H         -54.819004     -153.216888      -50.523525
