20
 generated by VMD
 C         -59.633579     -157.666519      -56.702454
 N         -59.076172     -158.643311      -56.828083
 H         -60.454399     -157.684525      -52.910557
 H         -60.151760     -156.708267      -56.762550
 C         -59.764076     -158.490158      -52.680050
 C         -58.386761     -158.282486      -52.316898
 C         -60.401421     -159.897369      -52.954369
 C         -57.984947     -159.367294      -51.402935
 C         -59.727390     -161.011063      -52.108707
 C         -58.155960     -160.790588      -51.976933
 H         -58.353668     -157.356339      -51.815121
 H         -57.676079     -158.153748      -53.141605
 H         -61.444508     -159.897827      -52.617790
 H         -60.319199     -160.189438      -54.028099
 H         -58.661938     -159.220642      -50.542770
 H         -56.928913     -159.216644      -51.106300
 H         -59.841892     -162.000504      -52.525002
 H         -60.172070     -161.026962      -51.050026
 H         -57.915848     -161.505859      -51.180111
 H         -57.742527     -160.895340      -52.917545
