20
 generated by VMD
 C         -50.734753     -129.797012      -45.282990
 N         -51.022579     -129.458649      -44.158001
 H         -49.327164     -129.095322      -42.090343
 H         -50.570889     -129.899292      -46.337696
 C         -48.327259     -129.280655      -41.814133
 C         -47.978577     -130.597656      -41.362404
 C         -47.433125     -128.187912      -41.366760
 C         -46.446579     -130.935120      -41.343212
 C         -45.923981     -128.462799      -41.274342
 C         -45.646061     -129.863922      -40.588005
 H         -48.492245     -131.366318      -41.859314
 H         -48.309685     -130.714294      -40.214691
 H         -47.532890     -127.356155      -42.184177
 H         -47.802238     -127.818184      -40.432926
 H         -46.093109     -130.966537      -42.399406
 H         -46.316456     -131.856750      -40.700775
 H         -45.476482     -127.728050      -40.631432
 H         -45.304398     -128.411697      -42.169571
 H         -44.595589     -130.113297      -40.382019
 H         -46.028481     -129.655991      -39.572071
