20
 generated by VMD
 C         -23.098642      -53.369610      -13.829874
 N         -23.843163      -52.953476      -14.695570
 H         -20.715328      -55.532524      -13.837097
 H         -22.683130      -53.916733      -13.131924
 C         -19.627441      -55.211254      -14.285899
 C         -19.146637      -53.882729      -13.741833
 C         -18.630177      -56.231266      -14.601580
 C         -17.970211      -53.883030      -12.759635
 C         -17.606993      -56.301796      -13.455623
 C         -16.904079      -54.909683      -13.223668
 H         -20.014591      -53.349773      -13.328979
 H         -18.854767      -53.175224      -14.509681
 H         -19.129204      -57.139194      -14.739558
 H         -18.160589      -55.941277      -15.553612
 H         -18.333696      -54.158417      -11.759452
 H         -17.449436      -52.890881      -12.714048
 H         -16.895903      -57.104149      -13.650405
 H         -18.086172      -56.520687      -12.472136
 H         -16.179216      -54.954079      -12.426099
 H         -16.451334      -54.594624      -14.197623
