20
 generated by VMD
 C          -5.940440      -21.071108        1.600966
 N          -5.768228      -21.698101        2.496593
 H          -5.010925      -18.487005       -1.297260
 H          -5.549567      -19.774431       -0.252878
 C          -5.722136      -19.283760       -1.275902
 C          -5.507421      -20.271172       -2.423136
 C          -7.177834      -18.734608       -1.138769
 C          -6.563128      -21.369358       -2.335014
 C          -8.214170      -19.837549       -1.181938
 C          -7.986027      -20.700891       -2.397296
 H          -4.454626      -20.715542       -2.405723
 H          -5.526190      -19.686987       -3.325082
 H          -7.318832      -18.191936       -0.212702
 H          -7.398477      -18.169624       -1.946253
 H          -6.448322      -21.851902       -1.330362
 H          -6.516290      -22.186243       -3.111695
 H          -9.214643      -19.352863       -1.199419
 H          -8.101015      -20.467913       -0.300185
 H          -8.783572      -21.419357       -2.485152
 H          -8.088872      -20.135271       -3.332622
