20
 generated by VMD
 C         -60.397297     -170.007797      -55.108925
 N         -59.325001     -169.912399      -55.425465
 H         -63.048710     -170.575836      -56.634850
 H         -61.423168     -170.171951      -54.843201
 C         -63.397511     -169.667053      -57.027000
 C         -62.483376     -169.034546      -57.957981
 C         -64.188103     -168.728455      -56.124458
 C         -63.071587     -167.855377      -58.786339
 C         -64.827194     -167.535767      -56.857212
 C         -63.729465     -166.911469      -57.805069
 H         -62.158203     -169.817825      -58.804123
 H         -61.605282     -168.699371      -57.451084
 H         -65.113541     -169.268951      -55.565914
 H         -63.528450     -168.299576      -55.291286
 H         -63.550339     -168.302246      -59.587109
 H         -62.257278     -167.344452      -59.306263
 H         -65.233116     -166.861160      -56.080730
 H         -65.757881     -168.033112      -57.464294
 H         -64.139946     -166.025925      -58.243637
 H         -62.872257     -166.434967      -57.263081
