20
 generated by VMD
 C         -39.685688     -100.391876      -30.699900
 N         -40.558296     -100.226036      -31.458544
 H         -37.196102     -102.628304      -30.829922
 H         -38.860142     -100.567284      -29.914797
 C         -36.677494     -101.698776      -30.917786
 C         -36.687485     -101.109077      -32.238022
 C         -35.419609     -101.403343      -30.118587
 C         -36.320927      -99.634720      -32.116917
 C         -35.148956      -99.972031      -30.042366
 C         -35.022137      -99.401138      -31.450628
 H         -37.696621     -101.285652      -32.669189
 H         -36.016285     -101.740646      -32.811733
 H         -35.715618     -101.807800      -29.141485
 H         -34.643024     -101.990318      -30.622032
 H         -37.147675      -99.046333      -31.698233
 H         -36.213783      -99.174484      -33.090679
 H         -34.218140      -99.874313      -29.600910
 H         -35.907814      -99.390945      -29.434855
 H         -34.991619      -98.261734      -31.466211
 H         -34.097134      -99.836388      -31.900593
