20
 generated by VMD
 C         -69.446465     -181.305328      -61.210625
 N         -69.479225     -180.206070      -61.523483
 H         -67.392426     -178.606476      -59.794296
 H         -69.256920     -182.309052      -60.893822
 C         -66.350105     -178.554565      -59.781315
 C         -65.610558     -178.834564      -61.028797
 C         -65.513451     -177.745010      -58.824238
 C         -65.125435     -177.495972      -61.757679
 C         -65.235107     -176.437485      -59.539745
 C         -64.379013     -176.632111      -60.757080
 H         -66.271492     -179.179123      -61.845509
 H         -64.738144     -179.523666      -61.027855
 H         -65.997543     -177.563049      -57.823902
 H         -64.642570     -178.332855      -58.644505
 H         -66.064568     -176.797577      -62.126148
 H         -64.417542     -177.765274      -62.652607
 H         -64.557899     -176.034332      -58.786705
 H         -66.040527     -175.692169      -59.757370
 H         -64.019226     -175.728989      -61.250332
 H         -63.555721     -177.218445      -60.509029
