20
 generated by VMD
 C         -79.175629     -207.227936      -75.680641
 N         -80.230507     -207.046707      -75.138435
 H         -77.412300     -208.899979      -73.287605
 H         -78.329674     -207.544846      -76.218750
 C         -77.276810     -208.817383      -72.243752
 C         -76.085243     -208.189026      -71.605576
 C         -78.006157     -209.928070      -71.537560
 C         -76.214722     -208.059479      -70.026741
 C         -78.221443     -209.535721      -70.101593
 C         -76.970970     -209.166672      -69.431480
 H         -75.867912     -207.225113      -72.044121
 H         -75.173660     -208.735596      -71.672752
 H         -78.954597     -210.058578      -72.149132
 H         -77.510078     -210.902740      -71.549385
 H         -76.796341     -207.168121      -69.839264
 H         -75.266098     -207.869690      -69.486687
 H         -78.593399     -210.389999      -69.474014
 H         -78.946609     -208.759048      -70.072220
 H         -76.806992     -209.083755      -68.318947
 H         -76.366928     -210.052124      -69.695663
