20
 generated by VMD
 C          -1.880430      -13.988332        2.276874
 N          -1.739293      -14.846443        1.583428
 H          -3.724700      -16.710791        0.577460
 H          -4.637260      -17.105503       -0.831077
 C          -4.747836      -16.881725        0.257607
 C          -5.560834      -15.685621        0.360216
 C          -5.380155      -18.107103        0.857836
 C          -6.863598      -15.867137       -0.415635
 C          -6.737947      -18.394667        0.208471
 C          -7.643587      -17.110779        0.073261
 H          -5.012421      -14.819938       -0.045252
 H          -5.847209      -15.414410        1.385010
 H          -4.738467      -19.047537        0.877878
 H          -5.517824      -17.963282        1.972107
 H          -6.563660      -16.059126       -1.466978
 H          -7.443045      -14.983890       -0.343523
 H          -7.330658      -19.149841        0.780133
 H          -6.638492      -18.753334       -0.808213
 H          -8.372931      -17.419188       -0.701247
 H          -8.166664      -17.005108        1.051436
