20
 generated by VMD
 C         -60.850704     -172.236237      -55.271915
 N         -60.174385     -173.061737      -54.929962
 H         -62.593243     -170.653564      -57.269444
 H         -61.578312     -171.463303      -55.401142
 C         -63.152946     -169.774292      -57.220818
 C         -62.764675     -168.420425      -57.530781
 C         -64.586311     -169.977249      -57.309376
 C         -63.300331     -167.909943      -58.815472
 C         -65.131233     -169.487061      -58.646706
 C         -64.846458     -167.959229      -58.709362
 H         -61.560787     -168.409531      -57.590439
 H         -63.006149     -167.855133      -56.725182
 H         -64.743141     -171.090637      -57.149426
 H         -64.956848     -169.606491      -56.363293
 H         -63.073929     -168.485718      -59.631065
 H         -62.877125     -166.909775      -58.915844
 H         -66.245445     -169.614319      -58.682613
 H         -64.685005     -169.991531      -59.609093
 H         -65.335693     -167.357864      -59.514595
 H         -65.045647     -167.342453      -57.860287
