20
 generated by VMD
 C         -65.689949     -177.662033      -56.788277
 N         -66.143867     -176.604691      -56.734745
 H         -64.946083     -175.502457      -59.471169
 H         -65.270576     -178.687988      -56.847481
 C         -64.619568     -174.448990      -59.510445
 C         -65.430344     -173.549683      -58.604752
 C         -63.470798     -174.144852      -60.348011
 C         -65.209915     -172.044281      -58.926315
 C         -63.147957     -172.715897      -60.249329
 C         -64.310913     -171.804001      -60.246857
 H         -64.908829     -173.582321      -57.558010
 H         -66.470436     -173.853897      -58.598118
 H         -62.568062     -174.686462      -59.919163
 H         -63.866409     -174.459091      -61.290504
 H         -64.530174     -171.590408      -58.140759
 H         -66.063225     -171.363220      -59.083172
 H         -62.628448     -172.570984      -61.179359
 H         -62.454044     -172.534729      -59.421940
 H         -64.081261     -170.772369      -60.360188
 H         -65.096954     -172.115234      -60.995941
