20
 generated by VMD
 C         -69.369392     -180.372437      -59.986500
 N         -68.950737     -181.348373      -60.449360
 H         -67.454361     -176.962784      -59.530785
 H         -69.833855     -179.457428      -59.580894
 C         -66.349205     -177.007523      -59.933441
 C         -65.988251     -176.983124      -61.357265
 C         -65.232162     -176.943207      -58.936676
 C         -64.938820     -175.934875      -61.528675
 C         -64.119255     -176.050964      -59.185665
 C         -63.697094     -176.172424      -60.632923
 H         -66.798767     -176.589081      -61.947742
 H         -65.558228     -177.943268      -61.737648
 H         -65.694290     -176.604279      -57.999012
 H         -64.839272     -178.003952      -58.729801
 H         -65.288002     -174.950195      -61.323315
 H         -64.624443     -176.114182      -62.602634
 H         -63.403709     -175.980499      -58.327541
 H         -64.571114     -175.004379      -59.176422
 H         -62.962006     -175.358063      -60.718002
 H         -63.223572     -177.215286      -60.868893
