20
 generated by VMD
 C         -69.880745     -197.326035      -65.951355
 N         -69.140579     -196.494522      -65.646484
 H         -71.747627     -194.031021      -64.961189
 H         -70.275513     -198.261215      -66.246941
 C         -72.574944     -193.829697      -65.618942
 C         -72.808311     -192.354462      -66.050667
 C         -73.001251     -194.904831      -66.502319
 C         -73.698021     -192.208359      -67.281052
 C         -74.158440     -194.588379      -67.377434
 C         -73.780792     -193.374222      -68.211960
 H         -71.828735     -192.039093      -66.317459
 H         -73.268715     -191.861649      -65.150185
 H         -72.275047     -195.479980      -67.164001
 H         -73.363335     -195.783310      -65.858963
 H         -73.476990     -191.361481      -67.912163
 H         -74.654366     -192.067108      -66.812737
 H         -75.022751     -194.308151      -66.718178
 H         -74.499184     -195.422256      -67.949745
 H         -72.832291     -193.528183      -68.725410
 H         -74.551498     -193.190277      -68.971710
