20
 generated by VMD
 C         -38.461578     -109.381218      -36.455868
 N         -37.421658     -108.874786      -36.274570
 H         -42.147480     -109.871735      -36.552883
 H         -39.534248     -109.781242      -36.497768
 C         -42.226685     -110.732857      -35.881382
 C         -41.701385     -112.138649      -35.967777
 C         -42.759529     -110.368462      -34.444710
 C         -40.779327     -112.600433      -34.766472
 C         -41.730644     -110.694267      -33.420170
 C         -41.505512     -112.177185      -33.522102
 H         -41.187237     -112.181549      -36.926304
 H         -42.636574     -112.809410      -35.930481
 H         -43.041309     -109.253525      -34.378532
 H         -43.724392     -110.873436      -34.326904
 H         -39.834080     -112.202263      -34.882008
 H         -40.679901     -113.730621      -34.757183
 H         -42.172916     -110.430328      -32.367947
 H         -40.729324     -110.129417      -33.447773
 H         -40.988251     -112.507698      -32.625835
 H         -42.460114     -112.662102      -33.342556
