20
 generated by VMD
 C         -48.692142     -140.793091      -45.382809
 N         -47.500919     -140.759750      -45.376900
 H         -50.997341     -138.948425      -45.981621
 H         -49.813248     -140.729843      -45.329079
 C         -52.001621     -139.282227      -46.176182
 C         -52.559917     -139.302612      -47.514599
 C         -53.041256     -139.618973      -45.015236
 C         -53.400261     -140.626740      -47.808952
 C         -53.721970     -140.992493      -45.334198
 C         -54.410530     -140.933029      -46.701965
 H         -51.775173     -139.154861      -48.227154
 H         -53.214268     -138.414886      -47.652485
 H         -52.571106     -139.763428      -43.978371
 H         -53.884541     -138.802582      -44.999710
 H         -52.793751     -141.612076      -47.833614
 H         -53.826694     -140.456573      -48.883392
 H         -54.652737     -141.228226      -44.718021
 H         -53.173027     -141.911377      -45.170223
 H         -54.906551     -141.822891      -47.054401
 H         -55.128040     -140.208481      -46.610153
