20
 generated by VMD
 C         -77.340919     -202.936844      -69.372185
 N         -77.786018     -203.796387      -68.710297
 H         -75.770630     -202.117874      -67.670319
 H         -76.916595     -202.233780      -70.132545
 C         -74.994980     -201.508545      -68.194160
 C         -75.126518     -200.099319      -68.487160
 C         -73.952171     -202.387085      -68.879196
 C         -74.669922     -199.650284      -69.905060
 C         -73.180321     -201.517838      -69.987495
 C         -74.086731     -200.786575      -70.832954
 H         -74.775246     -199.451630      -67.700455
 H         -76.265892     -199.958160      -68.511124
 H         -73.325974     -202.917526      -68.179222
 H         -74.527817     -203.067978      -69.444443
 H         -73.832619     -199.006073      -69.814384
 H         -75.549599     -199.266678      -70.381302
 H         -72.707939     -202.220535      -70.704620
 H         -72.490616     -200.908203      -69.398605
 H         -73.559074     -200.317902      -71.675728
 H         -74.980988     -201.477997      -71.230705
