20
 generated by VMD
 C         -73.881332     -201.510727      -65.488411
 N         -72.929527     -200.995575      -65.901840
 H         -75.070641     -198.243011      -67.011902
 H         -74.793983     -201.805161      -65.071274
 C         -74.941277     -197.754257      -67.974533
 C         -74.828941     -196.213898      -68.041252
 C         -74.464493     -198.581635      -69.073761
 C         -73.468994     -195.668777      -68.417236
 C         -73.493584     -197.801178      -69.953140
 C         -72.681389     -196.813812      -69.169540
 H         -75.016006     -195.956558      -67.076134
 H         -75.645432     -195.838272      -68.713730
 H         -73.860489     -199.366608      -68.559029
 H         -75.202339     -198.994843      -69.798309
 H         -72.969406     -195.328415      -67.530014
 H         -73.708817     -194.828842      -69.103600
 H         -74.021301     -197.240112      -70.710182
 H         -72.876389     -198.402084      -70.599693
 H         -72.204865     -197.485153      -68.375053
 H         -71.872795     -196.309875      -69.723625
