20
 generated by VMD
 C         -41.617802     -120.186920      -34.196659
 N         -42.178974     -121.204453      -34.405693
 H         -43.406738     -119.533195      -37.307575
 H         -41.021431     -119.252975      -33.885647
 C         -43.856461     -118.936775      -38.149319
 C         -43.159729     -118.748787      -39.404140
 C         -45.313129     -118.447281      -38.130188
 C         -43.983509     -118.841103      -40.683132
 C         -46.056999     -118.354851      -39.387024
 C         -45.232014     -117.994492      -40.619652
 H         -42.266598     -119.299911      -39.426682
 H         -42.634003     -117.748604      -39.295788
 H         -45.895149     -118.956383      -37.406982
 H         -45.112785     -117.436653      -37.696861
 H         -44.229462     -119.894806      -40.820831
 H         -43.400963     -118.486237      -41.471081
 H         -46.989651     -117.637070      -39.353718
 H         -46.544209     -119.462418      -39.528107
 H         -45.771866     -118.014336      -41.582104
 H         -44.766491     -116.936432      -40.766956
