20
 generated by VMD
 C         -56.988304     -150.788086      -48.002155
 N         -58.008785     -150.819000      -48.518017
 H         -54.425526     -149.024796      -47.464733
 H         -56.040695     -150.622192      -47.606743
 C         -54.242252     -148.458939      -48.359856
 C         -53.531029     -149.296387      -49.404510
 C         -54.595985     -147.105209      -48.685905
 C         -54.217884     -149.322495      -50.828537
 C         -55.384884     -147.061340      -50.014580
 C         -54.671844     -147.805420      -51.170181
 H         -53.709919     -150.315445      -48.877991
 H         -52.481510     -149.015213      -49.610989
 H         -55.149925     -146.635086      -47.912354
 H         -53.644184     -146.609604      -48.847649
 H         -55.178150     -149.866394      -50.892750
 H         -53.480484     -149.720520      -51.533512
 H         -55.399380     -146.012161      -50.250462
 H         -56.418236     -147.527725      -49.883095
 H         -55.110310     -147.803894      -52.159721
 H         -53.627048     -147.418640      -51.216316
