20
 generated by VMD
 C         -31.192297      -77.573891      -25.823706
 N         -31.676641      -77.991081      -26.860735
 H         -29.366241      -78.513191      -23.208895
 H         -30.966320      -77.217888      -24.871920
 C         -28.954437      -79.495827      -23.182774
 C         -27.436749      -79.724358      -23.305014
 C         -29.836998      -80.711250      -22.795475
 C         -26.968138      -80.227119      -21.911695
 C         -29.247156      -81.181793      -21.444197
 C         -27.714911      -81.538719      -21.600554
 H         -26.843861      -78.834267      -23.644472
 H         -27.163862      -80.408562      -24.186363
 H         -30.845680      -80.442558      -22.654364
 H         -29.809389      -81.458710      -23.684866
 H         -27.112741      -79.450066      -21.182838
 H         -25.925169      -80.602592      -21.901808
 H         -29.724733      -82.123123      -21.055712
 H         -29.346966      -80.400780      -20.676418
 H         -27.259851      -81.988068      -20.632338
 H         -27.477142      -82.254501      -22.439531
