20
 generated by VMD
 C         -30.595337      -92.823540      -26.256227
 N         -31.064766      -92.525887      -25.215868
 H         -32.580395      -90.398605      -26.453741
 H         -30.163740      -92.954796      -27.325750
 C         -33.325695      -90.554817      -27.199717
 C         -34.147606      -91.903824      -27.195662
 C         -33.145157      -89.796623      -28.531624
 C         -35.410183      -91.763710      -28.052620
 C         -34.485611      -89.701492      -29.220642
 C         -35.123238      -91.141609      -29.379110
 H         -34.500896      -92.055450      -26.065752
 H         -33.335011      -92.710457      -27.498747
 H         -32.855766      -88.749962      -28.394171
 H         -32.420780      -90.368492      -29.236935
 H         -36.199146      -91.280205      -27.434048
 H         -35.744179      -92.773277      -28.281427
 H         -34.335545      -89.423164      -30.265875
 H         -35.239605      -89.082703      -28.723539
 H         -36.050144      -91.310318      -29.865379
 H         -34.335213      -91.725121      -29.835724
