20
 generated by VMD
 C         -25.551411      -71.222206      -17.109743
 N         -25.384169      -71.168472      -15.952044
 H         -24.294033      -69.106300      -18.526283
 H         -25.565777      -71.221024      -18.119598
 C         -24.536913      -69.054077      -19.571657
 C         -23.855181      -69.918083      -20.572592
 C         -25.839294      -68.239227      -19.837811
 C         -24.877596      -70.755569      -21.230906
 C         -26.827238      -69.271790      -20.539904
 C         -26.088934      -70.031700      -21.793106
 H         -22.995598      -70.414330      -20.199636
 H         -23.360626      -69.180740      -21.210356
 H         -26.348305      -67.963638      -18.936533
 H         -25.622274      -67.486183      -20.646881
 H         -25.279839      -71.619072      -20.593496
 H         -24.324442      -71.323555      -21.958904
 H         -27.772053      -68.752747      -20.869623
 H         -27.071234      -70.146309      -19.851034
 H         -26.711634      -70.880966      -22.183170
 H         -25.563868      -69.485977      -22.595455
