20
 generated by VMD
 C         -22.448593      -52.265255      -11.583559
 N         -22.159161      -52.726097      -10.573799
 H         -19.935812      -52.396744      -14.219567
 H         -22.546299      -51.798458      -12.437754
 C         -18.863846      -52.376225      -13.947558
 C         -17.918541      -51.640583      -14.813272
 C         -18.541370      -52.591377      -12.501055
 C         -16.445904      -52.163578      -14.610690
 C         -17.219570      -51.984928      -12.120495
 C         -16.081818      -52.160023      -13.088448
 H         -18.077744      -50.499741      -14.702331
 H         -18.135267      -51.946640      -15.821010
 H         -19.351313      -52.186554      -11.903068
 H         -18.497063      -53.708622      -12.326690
 H         -15.696688      -51.583534      -15.130507
 H         -16.275631      -53.157295      -14.996941
 H         -16.857016      -52.407520      -11.115629
 H         -17.369717      -50.938976      -11.975083
 H         -15.285520      -51.455925      -12.791842
 H         -15.537420      -53.096107      -12.885159
