20
 generated by VMD
 C         -60.834034     -154.886047      -51.519688
 N         -60.814606     -154.029755      -52.243587
 H         -57.612865     -153.642014      -52.946651
 H         -60.802391     -155.739029      -50.866810
 C         -56.845398     -153.743927      -52.171780
 C         -57.389065     -154.032928      -50.816910
 C         -55.569096     -153.078522      -52.412762
 C         -56.188892     -154.319595      -49.957302
 C         -54.416210     -153.482407      -51.426517
 C         -54.950417     -153.425903      -49.994823
 H         -58.156517     -154.809311      -50.812130
 H         -57.832623     -153.063766      -50.606468
 H         -55.211285     -153.304886      -53.414326
 H         -55.617535     -151.946411      -52.402744
 H         -55.761829     -155.349808      -50.058136
 H         -56.687012     -154.303818      -48.883503
 H         -53.619423     -152.842667      -51.646008
 H         -54.049755     -154.560547      -51.440674
 H         -54.097797     -153.612457      -49.313549
 H         -55.293728     -152.511719      -49.635399
