20
 generated by VMD
 C         -50.266418     -145.210052      -45.111176
 N         -49.957439     -144.790939      -44.034214
 H         -53.035103     -143.324387      -45.906597
 H         -50.768879     -145.614120      -45.979023
 C         -53.388741     -143.007828      -46.887875
 C         -52.590424     -142.818893      -48.029171
 C         -54.668255     -142.149002      -46.819214
 C         -53.359150     -143.113739      -49.300365
 C         -55.426594     -142.188202      -48.178787
 C         -54.549366     -142.191956      -49.478054
 H         -51.805302     -143.524551      -47.804268
 H         -52.005070     -141.899704      -48.060513
 H         -55.259167     -142.568588      -45.967285
 H         -54.156120     -141.105988      -46.752316
 H         -53.779537     -144.102615      -49.363651
 H         -52.557545     -142.977142      -50.016621
 H         -56.341785     -141.535110      -48.205223
 H         -55.937378     -143.228760      -48.055603
 H         -55.111710     -142.364075      -50.407497
 H         -54.159039     -141.177948      -49.683212
