20
 generated by VMD
 C         -79.571381     -206.888367      -75.097168
 N         -79.911285     -207.586945      -74.257454
 H         -77.030167     -207.336548      -72.937286
 H         -79.424835     -206.234695      -75.885742
 C         -76.797852     -208.081085      -72.243042
 C         -75.629669     -207.905548      -71.386475
 C         -77.916824     -208.919968      -71.750755
 C         -75.999084     -207.499481      -69.995506
 C         -78.122864     -208.911850      -70.154274
 C         -76.777336     -208.670471      -69.489494
 H         -75.102402     -207.055313      -71.772987
 H         -74.976395     -208.791229      -71.290863
 H         -78.815079     -208.608200      -72.285118
 H         -77.704361     -209.981461      -72.075783
 H         -76.750946     -206.736801      -70.015152
 H         -75.146553     -207.387405      -69.347046
 H         -78.581375     -209.819977      -69.780151
 H         -78.910950     -208.144531      -70.020592
 H         -76.927940     -208.637131      -68.409142
 H         -76.016563     -209.452164      -69.723000
