20
 generated by VMD
 C         -31.622387      -75.752281      -23.853209
 N         -31.045046      -76.219452      -24.785419
 H         -29.726442      -78.478828      -22.173199
 H         -32.391041      -75.384018      -23.264545
 C         -28.634724      -78.243347      -22.074471
 C         -27.583839      -78.334213      -23.257778
 C         -28.112284      -78.089951      -20.666409
 C         -26.317165      -77.495766      -22.947506
 C         -26.719902      -77.394226      -20.389811
 C         -25.728628      -77.775726      -21.539251
 H         -28.069712      -77.969177      -24.186781
 H         -27.308723      -79.312737      -23.553074
 H         -28.857590      -77.477448      -20.043730
 H         -28.057564      -78.995148      -20.117992
 H         -26.561090      -76.430481      -23.137363
 H         -25.557623      -77.683975      -23.766729
 H         -26.355640      -77.789551      -19.525568
 H         -26.846407      -76.325966      -20.356550
 H         -24.783106      -77.194389      -21.495440
 H         -25.557966      -78.828896      -21.448748
