20
 generated by VMD
 C         -18.311625      -48.744228       -7.172793
 N         -19.033484      -49.603813       -7.098802
 H         -16.129629      -47.542355      -10.114187
 H         -16.304909      -48.990356      -11.216073
 C         -16.276371      -47.891972      -11.140763
 C         -15.132616      -47.419178      -12.000905
 C         -17.634127      -47.363766      -11.625092
 C         -15.361040      -47.575603      -13.498488
 C         -17.953293      -47.592377      -13.118855
 C         -16.744884      -47.059208      -13.929309
 H         -14.270458      -48.023182      -11.728465
 H         -14.909442      -46.355591      -11.799337
 H         -18.433933      -47.803665      -11.028129
 H         -17.645969      -46.302464      -11.430922
 H         -15.119127      -48.612595      -13.784132
 H         -14.605054      -47.034504      -14.090133
 H         -18.938459      -47.139900      -13.293116
 H         -17.996935      -48.632610      -13.297757
 H         -16.915800      -47.257820      -15.002915
 H         -16.698978      -45.944950      -13.811523
