20
 generated by VMD
 C         -78.171516     -203.724579      -69.331772
 N         -79.113083     -204.298187      -69.720291
 H         -75.240608     -202.080566      -67.319695
 H         -77.299545     -203.151367      -69.037628
 C         -75.015526     -201.801041      -68.265526
 C         -75.075432     -200.428543      -68.781593
 C         -73.878021     -202.665558      -68.920929
 C         -74.771652     -200.258362      -70.182472
 C         -72.810204     -201.826462      -69.738144
 C         -73.717857     -201.081757      -70.822708
 H         -74.451759     -199.891022      -68.118675
 H         -76.098343     -200.003113      -68.581802
 H         -73.330688     -203.064743      -68.059120
 H         -74.261482     -203.479813      -69.455368
 H         -74.422714     -199.211365      -70.193771
 H         -75.694092     -200.263046      -70.708611
 H         -72.108910     -202.603027      -70.109856
 H         -72.360809     -201.062714      -69.012665
 H         -73.099632     -200.517746      -71.510956
 H         -74.190796     -201.994507      -71.451660
