20
 generated by VMD
 C         -79.213921     -207.469574      -75.267975
 N         -78.652756     -207.123062      -76.239922
 H         -78.989876     -210.038422      -73.219681
 H         -79.725517     -207.590591      -74.326790
 C         -78.293472     -210.174362      -72.407249
 C         -77.247482     -209.149597      -72.187515
 C         -78.503716     -211.154968      -71.306282
 C         -76.914917     -208.670975      -70.896584
 C         -78.394501     -210.446854      -69.961380
 C         -77.048859     -209.764999      -69.781479
 H         -77.501518     -208.278030      -72.814171
 H         -76.360184     -209.507828      -72.687622
 H         -79.546005     -211.557709      -71.218094
 H         -77.848457     -212.003540      -71.552902
 H         -77.635300     -207.869797      -70.631302
 H         -75.898148     -208.181564      -70.839478
 H         -78.600967     -211.164963      -69.201424
 H         -79.137619     -209.648010      -69.668709
 H         -77.199348     -209.191742      -68.840820
 H         -76.141281     -210.407806      -69.717361
