20
 generated by VMD
 C         -41.707783     -102.278938      -34.154549
 N         -40.914608     -101.835205      -34.897411
 H         -39.453651     -104.151230      -32.443546
 H         -42.107620     -102.940834      -33.399929
 C         -38.350857     -104.130173      -32.089382
 C         -37.361382     -103.622528      -33.024994
 C         -38.120453     -105.021378      -30.954542
 C         -35.994099     -103.345581      -32.295246
 C         -36.918297     -104.500031      -30.205835
 C         -35.758907     -104.397507      -31.236231
 H         -37.783154     -102.772537      -33.612259
 H         -36.957317     -104.333969      -33.684353
 H         -39.049736     -105.030556      -30.207331
 H         -37.992542     -106.042374      -31.190742
 H         -36.113205     -102.295189      -31.768538
 H         -35.201614     -103.216507      -33.070164
 H         -36.743423     -105.160591      -29.352797
 H         -37.146805     -103.488617      -29.759167
 H         -34.872005     -104.174706      -30.637310
 H         -35.684517     -105.446144      -31.736048
