20
 generated by VMD
 C         -62.468430     -172.329208      -54.956398
 N         -61.503498     -172.945770      -55.290260
 H         -61.563675     -170.992996      -58.415070
 H         -63.294540     -171.633606      -54.686790
 C         -62.462906     -170.325012      -58.571037
 C         -62.427155     -168.956345      -57.999897
 C         -63.803066     -170.975235      -58.237293
 C         -63.593113     -168.059723      -58.331070
 C         -64.993446     -170.117081      -58.579586
 C         -64.941887     -168.723679      -58.003361
 H         -61.516739     -168.525452      -58.233269
 H         -62.403435     -169.137146      -56.822128
 H         -63.757648     -171.973846      -58.623951
 H         -63.856186     -171.083847      -57.218258
 H         -63.685276     -167.883621      -59.422848
 H         -63.673668     -167.095093      -57.746498
 H         -65.904854     -170.675354      -58.266914
 H         -64.925781     -170.099136      -59.743595
 H         -65.727905     -168.108536      -58.396622
 H         -65.061661     -168.625229      -56.943455
