20
 generated by VMD
 C         -73.875328     -200.481216      -65.581062
 N         -73.072456     -201.131790      -65.060654
 H         -72.989075     -197.732452      -66.590561
 H         -74.655457     -200.064285      -66.229309
 C         -73.376602     -197.312149      -67.489540
 C         -74.014320     -195.952835      -67.298866
 C         -72.881447     -197.760574      -68.726082
 C         -73.761810     -195.134155      -68.539803
 C         -73.752228     -197.400848      -69.873108
 C         -74.238190     -195.828629      -69.727982
 H         -73.472443     -195.573959      -66.352432
 H         -75.019539     -196.031235      -66.927078
 H         -71.920761     -197.268112      -68.804596
 H         -72.579994     -198.768417      -68.686272
 H         -72.665764     -194.932800      -68.655205
 H         -74.326408     -194.176392      -68.440094
 H         -74.663376     -198.027344      -69.820709
 H         -73.321602     -197.630875      -70.802505
 H         -73.851166     -195.401657      -70.692474
 H         -75.375084     -195.877441      -69.903709
