20
 generated by VMD
 C         -50.047821     -132.000824      -46.703323
 N         -49.989738     -132.517838      -47.725990
 H         -48.099312     -132.026352      -43.955521
 H         -50.198383     -131.315399      -45.893051
 C         -48.648079     -132.777939      -43.303387
 C         -49.541595     -133.820480      -43.777817
 C         -48.838188     -132.329910      -41.883831
 C         -49.455853     -135.090637      -42.920979
 C         -48.705109     -133.541351      -40.939632
 C         -49.488804     -134.821289      -41.471882
 H         -49.182617     -134.194839      -44.782040
 H         -50.571957     -133.609543      -43.855022
 H         -48.133255     -131.478516      -41.721470
 H         -49.901844     -131.942673      -41.708031
 H         -48.500198     -135.635834      -43.157078
 H         -50.269405     -135.764893      -43.268253
 H         -49.137306     -133.329239      -39.980324
 H         -47.645275     -133.655838      -40.913277
 H         -49.272655     -135.672699      -40.876453
 H         -50.579929     -134.581467      -41.266594
