20
 generated by VMD
 C         -46.075317     -124.048676      -35.756573
 N         -46.653736     -125.057442      -35.486301
 H         -44.997509     -122.301750      -38.463238
 H         -45.488201     -123.151558      -35.746792
 C         -44.572300     -121.445557      -39.037865
 C         -43.294399     -121.467545      -39.720505
 C         -45.748344     -120.728157      -39.522236
 C         -43.467186     -121.525444      -41.261734
 C         -45.911949     -120.813759      -41.043152
 C         -44.557297     -120.605072      -41.815742
 H         -42.657600     -122.354324      -39.466820
 H         -42.714855     -120.652313      -39.408466
 H         -46.708836     -121.091202      -39.030365
 H         -45.566452     -119.739151      -39.111027
 H         -43.740562     -122.508644      -41.514439
 H         -42.531815     -121.244736      -41.678120
 H         -46.697304     -120.217941      -41.361759
 H         -46.166836     -121.738541      -41.408798
 H         -44.717163     -120.954910      -42.818775
 H         -44.165905     -119.572411      -41.806519
