20
 generated by VMD
 C         -27.524336      -84.634422      -26.472809
 N         -27.708141      -85.729454      -26.801796
 H         -31.096903      -85.011520      -25.760651
 H         -27.214130      -83.587242      -26.093016
 C         -31.998535      -85.648781      -25.811514
 C         -32.441425      -86.029503      -24.437992
 C         -32.208485      -86.601448      -26.909685
 C         -33.628792      -86.984459      -24.227594
 C         -33.509624      -87.390938      -26.722647
 C         -33.495502      -88.120750      -25.275627
 H         -32.873489      -85.183174      -23.861506
 H         -31.633440      -86.435036      -23.920313
 H         -32.211330      -85.969406      -27.760136
 H         -31.229860      -87.154869      -27.017981
 H         -34.580353      -86.484512      -24.459108
 H         -33.610996      -87.417084      -23.225185
 H         -33.660328      -88.062248      -27.570343
 H         -34.429638      -86.775154      -26.631432
 H         -34.281483      -88.936241      -25.193678
 H         -32.558575      -88.676231      -25.243814
