20
 generated by VMD
 C         -40.272846     -107.103912      -37.799927
 N         -39.229008     -106.616577      -37.862003
 H         -38.804878     -108.169029      -34.386883
 H         -41.160545     -107.700691      -37.667488
 C         -39.504242     -108.914436      -33.905586
 C         -38.855145     -110.160332      -33.461182
 C         -40.912457     -108.915451      -34.272987
 C         -39.679848     -110.807060      -32.285011
 C         -41.801014     -109.519325      -33.179546
 C         -41.181599     -110.927544      -32.689312
 H         -37.813869     -109.724556      -33.133656
 H         -38.644123     -110.836143      -34.317875
 H         -41.197712     -107.910316      -34.499916
 H         -41.043354     -109.441803      -35.230366
 H         -39.431633     -110.193298      -31.408085
 H         -39.399765     -111.862564      -31.948662
 H         -42.799057     -109.594261      -33.539616
 H         -41.784611     -108.936035      -32.325668
 H         -41.756699     -111.473991      -31.931829
 H         -41.143524     -111.602844      -33.507542
