20
 generated by VMD
 C         -30.114235      -92.709976      -25.604916
 N         -31.212666      -93.127335      -25.736610
 H         -33.071453      -91.099670      -26.348288
 H         -29.092276      -92.329659      -25.339310
 C         -33.627178      -91.022942      -27.305271
 C         -34.610847      -92.206505      -27.435684
 C         -33.050568      -90.345886      -28.531687
 C         -35.768513      -91.655952      -28.270922
 C         -34.345718      -89.922554      -29.350103
 C         -35.254894      -91.118423      -29.565844
 H         -35.083515      -92.546989      -26.442232
 H         -34.337677      -93.138062      -28.025139
 H         -32.547489      -89.447479      -28.197197
 H         -32.387302      -91.086548      -29.059278
 H         -36.256348      -90.848068      -27.711782
 H         -36.522743      -92.494705      -28.404654
 H         -33.993095      -89.643684      -30.438919
 H         -34.893909      -89.056862      -28.839909
 H         -36.029213      -90.847206      -30.224667
 H         -34.690659      -91.945793      -30.002815
