20
 generated by VMD
 C         -79.486359     -206.637772      -73.508461
 N         -80.449692     -206.113480      -73.194679
 H         -78.027809     -205.163193      -70.974747
 H         -78.677185     -207.285370      -73.867050
 C         -77.046013     -205.292374      -70.552345
 C         -75.915588     -204.336212      -70.942276
 C         -76.666222     -206.685410      -69.942566
 C         -74.599960     -204.481903      -70.274765
 C         -75.479698     -206.598877      -69.050987
 C         -74.350235     -205.958069      -69.852539
 H         -76.197609     -203.250671      -70.640381
 H         -75.717056     -204.315109      -72.006531
 H         -77.627548     -207.068832      -69.430244
 H         -76.488518     -207.341263      -70.805695
 H         -74.608353     -203.872940      -69.372887
 H         -73.762177     -204.214981      -70.851089
 H         -75.078629     -207.567490      -68.649445
 H         -75.771454     -205.993958      -68.090225
 H         -73.399315     -206.238632      -69.345497
 H         -74.253197     -206.425354      -70.835281
