20
 generated by VMD
 C         -38.448662     -108.026375      -37.314655
 N         -38.921864     -107.238823      -38.045704
 H         -40.652122     -108.626183      -35.307049
 H         -38.095482     -108.828697      -36.710407
 C         -40.671333     -109.276726      -34.464951
 C         -39.729130     -110.383888      -34.541149
 C         -42.049107     -109.469894      -34.022003
 C         -39.833206     -111.253746      -33.181561
 C         -42.189041     -110.297470      -32.766884
 C         -41.287525     -111.573967      -32.841232
 H         -38.679031     -110.159538      -34.642662
 H         -39.902176     -111.136581      -35.339359
 H         -42.551430     -108.496330      -33.857754
 H         -42.593777     -109.792511      -34.898949
 H         -39.184189     -110.778374      -32.341236
 H         -39.241760     -112.149307      -33.403969
 H         -43.206802     -110.641090      -32.618198
 H         -41.932632     -109.596565      -31.939695
 H         -41.285408     -111.999054      -31.925747
 H         -41.719975     -112.249832      -33.640430
