20
 generated by VMD
 C         -40.500263     -117.226151      -34.510010
 N         -39.500954     -116.749321      -34.808853
 H         -41.656254     -116.626984      -37.421257
 H         -41.484844     -117.439201      -34.320229
 C         -42.696018     -116.460770      -37.735401
 C         -42.976074     -116.318588      -39.219997
 C         -43.706863     -116.095444      -36.706070
 C         -44.324867     -116.950394      -39.516102
 C         -44.898544     -116.975533      -37.016495
 C         -45.392235     -116.716248      -38.384750
 H         -42.135220     -116.797501      -39.723541
 H         -43.123531     -115.261086      -39.483913
 H         -43.281204     -116.136696      -35.644279
 H         -43.952133     -115.073784      -36.746716
 H         -44.280685     -118.070717      -39.642200
 H         -44.676331     -116.471046      -40.468407
 H         -45.607605     -116.612854      -36.237625
 H         -44.748356     -117.979225      -36.578491
 H         -46.215206     -117.280403      -38.709499
 H         -45.663681     -115.615280      -38.471115
