20
 generated by VMD
 C         -58.413166     -160.050308      -57.039032
 N         -58.618416     -159.863800      -58.129478
 H         -58.828934     -163.174042      -54.844852
 H         -58.160336     -160.261093      -56.014652
 C         -59.667095     -163.087509      -54.118034
 C         -59.477657     -163.109467      -52.686714
 C         -60.984604     -163.086578      -54.767498
 C         -60.300392     -162.004074      -52.036949
 C         -61.968399     -162.264877      -53.935192
 C         -61.668522     -162.290329      -52.424664
 H         -58.461155     -162.888596      -52.431694
 H         -59.691547     -164.020844      -52.295517
 H         -60.836067     -162.557083      -55.771362
 H         -61.347630     -164.108551      -54.825996
 H         -60.019718     -161.048492      -52.341263
 H         -60.200157     -162.002899      -50.887363
 H         -63.069870     -162.456726      -54.174240
 H         -61.876217     -161.091843      -54.266762
 H         -62.326107     -161.497086      -51.980694
 H         -62.063007     -163.159592      -52.024178
