20
 generated by VMD
 C         -12.690857      -30.119579       -7.683558
 N         -13.653431      -29.600948       -7.888733
 H         -11.367076      -30.167517       -4.837737
 H         -10.334158      -30.525579       -3.555611
 C         -10.738166      -30.952271       -4.427430
 C          -9.689526      -31.450148       -5.456286
 C         -11.609384      -32.205692       -3.962008
 C          -8.938352      -32.640900       -4.920154
 C         -10.816625      -33.306858       -3.293952
 C          -9.663024      -33.768623       -4.251185
 H          -8.986615      -30.584520       -5.631491
 H         -10.149542      -31.739286       -6.419621
 H         -12.367487      -31.803593       -3.292501
 H         -12.123051      -32.646259       -4.801779
 H          -8.281642      -32.227264       -4.188614
 H          -8.388882      -33.097496       -5.722542
 H         -11.438540      -34.165318       -3.077597
 H         -10.308213      -32.939342       -2.335606
 H          -8.993806      -34.374462       -3.712661
 H         -10.141147      -34.312851       -5.037119
