20
 generated by VMD
 C         -79.503616     -205.415939      -70.979248
 N         -80.273354     -206.138062      -71.392670
 H         -77.276123     -202.989685      -70.005356
 H         -78.763733     -204.792770      -70.615868
 C         -76.275047     -203.292709      -70.188248
 C         -75.309120     -202.185196      -70.476227
 C         -75.786598     -204.720963      -70.078659
 C         -73.833374     -202.677673      -70.404015
 C         -74.611275     -204.744400      -69.066475
 C         -73.486549     -203.938477      -69.748329
 H         -75.520409     -201.474518      -69.702583
 H         -75.490326     -201.743393      -71.481827
 H         -76.548798     -205.243423      -69.565887
 H         -75.557724     -205.038635      -71.041428
 H         -73.174873     -201.838882      -70.075241
 H         -73.461044     -202.817856      -71.487892
 H         -74.344536     -205.834488      -68.755615
 H         -74.895615     -204.156845      -68.191223
 H         -72.823097     -203.688080      -68.806633
 H         -72.913063     -204.637802      -70.413139
