20
 generated by VMD
 C         -48.225353     -135.400162      -46.115276
 N         -47.420414     -135.113892      -46.836826
 H         -51.434509     -134.900497      -45.810230
 H         -49.059315     -135.741699      -45.559593
 C         -51.358849     -135.633942      -44.942314
 C         -52.042587     -136.849365      -45.493557
 C         -51.303772     -135.466431      -43.459984
 C         -51.413574     -138.078415      -44.791729
 C         -50.653389     -136.671768      -42.905479
 C         -51.342392     -137.945084      -43.294258
 H         -52.036842     -136.977921      -46.563332
 H         -53.087551     -136.758728      -45.188965
 H         -50.709862     -134.573608      -43.165775
 H         -52.276951     -135.383347      -43.047474
 H         -50.355091     -138.090469      -45.119469
 H         -51.883343     -139.097626      -45.031586
 H         -50.706505     -136.537811      -41.794300
 H         -49.556728     -136.608322      -43.196686
 H         -50.925735     -138.841187      -42.846798
 H         -52.484810     -138.055222      -42.834461
