20
 generated by VMD
 C         -60.805157     -153.260620      -52.305408
 N         -60.699787     -152.914566      -51.256340
 H         -57.385708     -154.065948      -50.460758
 H         -60.944542     -153.695358      -53.250946
 C         -56.446983     -153.449722      -50.463951
 C         -55.463009     -153.512451      -49.395699
 C         -56.522690     -152.088974      -51.218414
 C         -54.123882     -153.205719      -50.016094
 C         -55.204212     -151.497971      -51.660858
 C         -54.190380     -151.678619      -50.550617
 H         -55.492950     -154.521713      -48.999634
 H         -55.601471     -152.811401      -48.557838
 H         -57.140240     -152.206345      -52.147514
 H         -57.017403     -151.333603      -50.629662
 H         -53.979290     -153.883224      -50.839455
 H         -53.328125     -153.194061      -49.154911
 H         -55.242519     -150.416077      -52.077522
 H         -54.806198     -152.040619      -52.537952
 H         -53.084610     -151.488174      -50.758003
 H         -54.541965     -151.238556      -49.687733
