20
 generated by VMD
 C          -7.052189      -23.420349        2.097252
 N          -7.253031      -22.351301        1.794180
 H          -8.621079      -23.350336       -1.037595
 H          -9.261319      -22.394300       -2.369125
 C          -8.346825      -22.697441       -1.827720
 C          -7.452305      -23.397577       -2.927543
 C          -7.707268      -21.408695       -1.225810
 C          -6.997373      -22.453548       -4.004538
 C          -7.266299      -20.476044       -2.383010
 C          -6.314174      -21.239466       -3.387947
 H          -8.145131      -24.218906       -3.351219
 H          -6.546184      -23.772432       -2.484192
 H          -8.365241      -20.812464       -0.533654
 H          -6.857547      -21.684374       -0.565246
 H          -7.712772      -22.187920       -4.769344
 H          -6.300806      -22.962660       -4.671341
 H          -6.730644      -19.557556       -2.027973
 H          -8.083482      -19.976913       -2.956631
 H          -6.040771      -20.530331       -4.209106
 H          -5.363144      -21.500376       -2.891338
