20
 generated by VMD
 C         -50.908508     -129.320175      -45.120510
 N         -50.945839     -130.066452      -44.228703
 H         -49.159145     -128.517990      -41.644714
 H         -50.733376     -128.746414      -46.039707
 C         -48.235046     -128.747910      -41.175797
 C         -47.830708     -130.087860      -40.939232
 C         -47.176846     -127.738365      -40.948330
 C         -46.444653     -130.502640      -41.550415
 C         -45.735821     -128.089935      -41.331772
 C         -45.329735     -129.551331      -40.883060
 H         -48.669857     -130.795212      -41.398094
 H         -47.797535     -130.236603      -39.859154
 H         -47.347561     -126.820480      -41.418980
 H         -47.243950     -127.550827      -39.846691
 H         -46.590927     -130.373688      -42.626545
 H         -46.197517     -131.473343      -41.184048
 H         -44.960171     -127.551590      -40.811432
 H         -45.601440     -128.036346      -42.371033
 H         -44.266964     -129.786575      -41.142162
 H         -45.471336     -129.689560      -39.807785
