20
 generated by VMD
 C          -1.483827       -8.884856        0.175020
 N          -2.560180       -9.180655       -0.098599
 H          -2.467732      -10.488060        2.618534
 H          -2.168076      -11.781586        3.892150
 C          -2.816189      -11.410101        3.056612
 C          -2.853672      -12.462038        1.963559
 C          -4.207813      -11.173368        3.606253
 C          -3.279741      -13.758066        2.597804
 C          -4.679550      -12.498967        4.247990
 C          -4.620525      -13.694274        3.310688
 H          -1.807061      -12.583541        1.600220
 H          -3.517585      -12.113677        1.178301
 H          -4.097094      -10.582013        4.488256
 H          -4.943316      -10.777430        2.999284
 H          -2.522492      -14.000067        3.320119
 H          -3.318955      -14.506710        1.778489
 H          -5.698595      -12.319553        4.703658
 H          -4.001903      -12.703441        5.127114
 H          -4.810957      -14.641660        3.861573
 H          -5.316823      -13.596118        2.438226
