20
 generated by VMD
 C         -29.442757      -74.636093      -19.615517
 N         -30.480442      -74.453316      -20.143637
 H         -25.809908      -73.471519      -18.900417
 H         -28.615105      -75.162086      -19.220898
 C         -25.690996      -73.347076      -19.941616
 C         -25.319035      -74.645615      -20.707554
 C         -25.438370      -71.974274      -20.553587
 C         -26.004875      -74.568199      -22.108650
 C         -26.087830      -71.947075      -21.863848
 C         -25.724953      -73.145523      -22.739267
 H         -25.764076      -75.628044      -20.150270
 H         -24.232111      -74.741562      -20.850687
 H         -25.944099      -71.241859      -19.921820
 H         -24.315470      -71.859550      -20.453850
 H         -27.048044      -74.910866      -21.961235
 H         -25.591059      -75.247765      -22.887585
 H         -25.563694      -71.092926      -22.263683
 H         -27.049807      -71.619759      -21.892269
 H         -26.254314      -73.008690      -23.698639
 H         -24.596750      -73.033875      -22.958620
