20
 generated by VMD
 C         -69.698082     -183.213074      -65.284790
 N         -70.128899     -182.395370      -66.008698
 H         -68.018600     -184.704926      -62.976212
 H         -69.285629     -183.925552      -64.547630
 C         -67.731201     -183.966110      -62.237762
 C         -67.906303     -184.284897      -60.739285
 C         -67.720444     -182.538696      -62.597946
 C         -67.134575     -183.438171      -59.808182
 C         -67.076813     -181.625580      -61.608826
 C         -67.330368     -182.001221      -60.179581
 H         -67.766083     -185.357315      -60.633564
 H         -68.966255     -184.326126      -60.537693
 H         -67.157326     -182.286819      -63.542534
 H         -68.798592     -182.231461      -62.704536
 H         -66.037651     -183.685165      -59.983196
 H         -67.236382     -183.500687      -58.645206
 H         -67.545227     -180.631058      -61.839817
 H         -65.961716     -181.542709      -61.791565
 H         -66.560692     -181.504578      -59.519035
 H         -68.239006     -181.559998      -59.827007
