20
 generated by VMD
 C         -40.955647     -101.321198      -32.741501
 N         -42.061359     -101.493645      -33.074074
 H         -38.665073     -102.934700      -32.382256
 H         -39.947399     -101.205437      -32.507309
 C         -37.641964     -102.795052      -32.041367
 C         -36.524529     -102.682693      -32.957752
 C         -37.395100     -102.920219      -30.549118
 C         -35.271530     -102.139397      -32.270557
 C         -36.228100     -102.180397      -30.018967
 C         -34.964371     -102.510101      -30.905760
 H         -36.778214     -101.937721      -33.745140
 H         -36.195717     -103.554787      -33.469704
 H         -38.202606     -102.634918      -29.863609
 H         -37.275154     -104.083778      -30.419825
 H         -35.230064     -101.124329      -32.400402
 H         -34.378712     -102.444443      -32.762615
 H         -36.114902     -102.531311      -28.970854
 H         -36.221737     -101.150368      -30.061180
 H         -34.045528     -101.975929      -30.682405
 H         -34.702347     -103.544052      -30.747269
