20
 generated by VMD
 C         -20.857931      -56.549335      -16.981220
 N         -21.234720      -55.646568      -17.542366
 H         -22.559654      -58.404697      -16.437946
 H         -20.717155      -57.219448      -16.003231
 C         -22.094316      -59.123219      -15.751937
 C         -22.100599      -59.061256      -14.292573
 C         -21.707703      -60.448318      -16.370342
 C         -21.020599      -59.845917      -13.660819
 C         -20.521761      -61.107388      -15.644054
 C         -20.851406      -61.300331      -14.227478
 H         -23.021244      -59.355122      -13.755069
 H         -22.040705      -58.023781      -14.064450
 H         -22.575621      -61.097008      -16.317928
 H         -21.416306      -60.357037      -17.403767
 H         -21.140581      -60.009155      -12.553945
 H         -20.072962      -59.254311      -13.648496
 H         -19.562807      -60.582573      -15.844097
 H         -20.234688      -62.099987      -16.033766
 H         -21.804150      -61.822319      -14.065063
 H         -20.015554      -61.720657      -13.671055
