20
 generated by VMD
 C         -23.289486      -54.598030      -14.935977
 N         -23.701748      -53.904911      -15.723298
 H         -20.284328      -54.646854      -15.407801
 H         -22.466784      -55.163292      -14.478002
 C         -19.668207      -55.331463      -14.772414
 C         -19.117838      -54.617409      -13.408703
 C         -18.975521      -56.547043      -15.285924
 C         -18.500643      -55.569592      -12.389489
 C         -18.763384      -57.383648      -14.022976
 C         -17.835381      -56.697227      -13.086133
 H         -19.993511      -54.152855      -13.053062
 H         -18.401012      -53.869537      -13.626517
 H         -19.653267      -57.095123      -15.965887
 H         -18.051586      -56.320335      -15.723584
 H         -19.311289      -55.958641      -11.721463
 H         -17.852163      -55.117260      -11.636081
 H         -18.287363      -58.396927      -14.277046
 H         -19.695574      -57.635532      -13.522026
 H         -17.487364      -57.413540      -12.320662
 H         -16.911135      -56.413490      -13.602636
