20
 generated by VMD
 C         -79.500954     -206.706314      -73.561943
 N         -80.434425     -206.081467      -73.267067
 H         -77.969299     -205.281082      -71.082642
 H         -78.754883     -207.503510      -73.712173
 C         -77.063629     -205.308319      -70.502060
 C         -75.960548     -204.342865      -70.928291
 C         -76.707481     -206.665161      -69.955696
 C         -74.566254     -204.576614      -70.239769
 C         -75.428627     -206.637100      -69.042534
 C         -74.394409     -205.938477      -69.864639
 H         -76.328880     -203.306534      -70.607109
 H         -75.914391     -204.324966      -72.004478
 H         -77.599541     -206.904358      -69.262672
 H         -76.610306     -207.459030      -70.729301
 H         -74.294968     -203.901123      -69.439819
 H         -73.823883     -204.340240      -71.017540
 H         -75.220535     -207.653595      -68.848045
 H         -75.489037     -206.005722      -68.070320
 H         -73.374062     -206.031860      -69.444145
 H         -74.350830     -206.489258      -70.827049
