20
 generated by VMD
 C         -68.701416     -184.754562      -65.925858
 N         -69.595284     -185.482071      -66.039673
 H         -69.813232     -183.046570      -63.643085
 H         -67.871719     -184.055206      -65.855209
 C         -69.186371     -183.697739      -62.971581
 C         -69.897911     -184.946609      -62.573944
 C         -67.819328     -183.287613      -62.448002
 C         -69.005630     -185.917511      -61.848324
 C         -67.400146     -184.109589      -61.190411
 C         -68.392029     -185.203552      -60.710522
 H         -70.274223     -185.517899      -63.404934
 H         -70.825310     -184.726273      -62.051701
 H         -67.126770     -183.640015      -63.337326
 H         -67.667168     -182.180862      -62.412952
 H         -68.297493     -186.332794      -62.566360
 H         -69.535866     -186.659988      -61.285183
 H         -67.180267     -183.599274      -60.241138
 H         -66.485069     -184.606735      -61.628620
 H         -67.926422     -185.913437      -60.034725
 H         -69.361313     -184.718353      -60.031044
