20
 generated by VMD
 C         -78.870903     -204.165695      -70.414986
 N         -79.849586     -204.694611      -70.533913
 H         -76.635704     -203.431870      -68.511826
 H         -77.876289     -203.774033      -70.164345
 C         -75.776947     -203.251602      -69.193718
 C         -75.770027     -201.911896      -69.942802
 C         -74.479980     -204.007202      -69.019608
 C         -74.542397     -201.522278      -70.713951
 C         -73.411003     -202.926636      -68.949104
 C         -73.207901     -202.390427      -70.330582
 H         -75.996307     -201.138855      -69.245064
 H         -76.634537     -201.860672      -70.693542
 H         -74.476768     -204.571823      -68.129822
 H         -74.339882     -204.545761      -69.911270
 H         -74.326180     -200.484985      -70.555344
 H         -74.747429     -201.705688      -71.770195
 H         -72.376335     -203.354706      -68.677200
 H         -73.580727     -202.005600      -68.341835
 H         -72.295830     -201.834702      -70.409843
 H         -73.214088     -203.188141      -71.137672
