20
 generated by VMD
 C         -26.075907      -71.873123      -17.340117
 N         -26.722836      -72.562592      -16.650549
 H         -24.572504      -69.332161      -18.613791
 H         -25.598547      -71.104652      -17.955561
 C         -24.857403      -69.665749      -19.618910
 C         -24.061903      -70.696335      -20.359995
 C         -25.684179      -68.768196      -20.485224
 C         -25.096964      -71.723358      -21.135639
 C         -26.687643      -69.672417      -21.213951
 C         -26.092054      -70.814018      -22.038050
 H         -23.360249      -71.233932      -19.678276
 H         -23.427711      -70.495384      -21.286646
 H         -26.312506      -68.068268      -19.872829
 H         -25.077755      -68.177650      -21.126720
 H         -25.673506      -72.291267      -20.379698
 H         -24.547295      -72.475418      -21.805397
 H         -27.151104      -68.948036      -21.908459
 H         -27.399494      -70.088043      -20.525831
 H         -26.954500      -71.318329      -22.596987
 H         -25.518887      -70.318504      -22.859581
