20
 generated by VMD
 C         -43.215939     -121.135643      -35.532070
 N         -43.046047     -120.579056      -34.560848
 H         -44.364880     -121.825478      -38.857948
 H         -43.649559     -121.593323      -36.460705
 C         -44.450779     -120.779655      -39.106651
 C         -43.192966     -120.102112      -39.686768
 C         -45.458469     -119.963814      -38.406845
 C         -43.649258     -118.988342      -40.602264
 C         -45.858433     -118.835396      -39.342278
 C         -44.714199     -118.082214      -39.954144
 H         -42.676048     -120.763618      -40.324146
 H         -42.674706     -119.738342      -38.753033
 H         -46.373508     -120.427788      -38.110203
 H         -45.093010     -119.475662      -37.493462
 H         -44.192822     -119.430855      -41.538929
 H         -42.843063     -118.327179      -40.968216
 H         -46.469490     -118.038300      -38.926655
 H         -46.351028     -119.322525      -40.272755
 H         -45.090973     -117.381432      -40.716637
 H         -44.188503     -117.632179      -39.090183
