20
 generated by VMD
 C         -58.206345     -150.940094      -49.153633
 N         -58.337826     -151.968872      -48.657936
 H         -55.447773     -149.915497      -47.823757
 H         -58.116570     -149.929764      -49.554077
 C         -55.297890     -149.475723      -48.767570
 C         -54.286781     -150.341141      -49.434769
 C         -55.114491     -148.088562      -48.971561
 C         -54.233028     -149.957336      -50.940544
 C         -54.830929     -147.719269      -50.395813
 C         -53.804157     -148.493927      -51.097275
 H         -54.730499     -151.369797      -49.343735
 H         -53.325779     -150.341232      -48.936287
 H         -55.841843     -147.447723      -48.549923
 H         -54.250854     -147.832230      -48.375416
 H         -55.191616     -150.263489      -51.349979
 H         -53.457039     -150.564438      -51.346062
 H         -54.387642     -146.672791      -50.531067
 H         -55.684708     -147.888092      -50.921467
 H         -53.693455     -148.168625      -52.085552
 H         -52.870514     -148.263870      -50.535709
