20
 generated by VMD
 C         -28.407642      -84.310272      -26.987642
 N         -27.653536      -83.457062      -26.670919
 H         -31.641214      -84.216507      -26.213394
 H         -28.981890      -85.099983      -27.289619
 C         -31.500839      -85.236839      -25.807411
 C         -31.487143      -85.424171      -24.288580
 C         -31.926687      -86.600273      -26.559200
 C         -32.786446      -86.068520      -23.754173
 C         -33.242100      -87.054955      -26.049639
 C         -33.300941      -87.272957      -24.461178
 H         -31.329525      -84.464821      -23.821070
 H         -30.610550      -86.042465      -23.906727
 H         -32.007919      -86.549530      -27.701729
 H         -31.161900      -87.342049      -26.323952
 H         -33.530594      -85.310211      -23.662067
 H         -32.703693      -86.296509      -22.648315
 H         -33.515812      -88.032555      -26.402136
 H         -34.049316      -86.446220      -26.286913
 H         -34.293900      -87.315826      -24.189089
 H         -32.915874      -88.259613      -24.298664
