20
 generated by VMD
 C         -49.537918     -141.614807      -45.783791
 N         -49.502415     -142.166931      -44.782867
 H         -51.544365     -138.723480      -46.155720
 H         -49.735695     -141.195724      -46.736446
 C         -52.315056     -139.401093      -46.423874
 C         -52.890751     -139.496323      -47.882946
 C         -52.969753     -140.109741      -45.338314
 C         -53.112274     -140.930695      -48.144508
 C         -53.088158     -141.570053      -45.694145
 C         -53.845551     -141.713959      -46.979160
 H         -52.095978     -139.160019      -48.533504
 H         -53.691650     -138.772278      -47.930656
 H         -52.439735     -139.996704      -44.341640
 H         -54.101589     -139.721939      -45.275711
 H         -52.178913     -141.317795      -48.458229
 H         -53.667500     -141.152710      -48.989708
 H         -53.629383     -142.057953      -44.866169
 H         -52.211250     -142.278610      -45.914593
 H         -53.851307     -142.736664      -47.266975
 H         -54.856167     -141.404861      -46.909245
