20
 generated by VMD
 C          -2.667256       -9.715514        0.089183
 N          -1.982410       -8.871747        0.286944
 H          -2.100452      -11.369463        2.839797
 H          -2.481761      -12.138193        4.206934
 C          -2.741311      -12.155587        3.139297
 C          -2.575380      -13.470088        2.451450
 C          -4.197113      -11.598409        2.838656
 C          -3.599212      -14.525360        2.867498
 C          -5.305543      -12.626176        3.169840
 C          -5.029921      -14.026939        2.631297
 H          -1.502033      -13.824278        2.617375
 H          -2.624206      -13.300182        1.360389
 H          -4.395330      -10.609972        3.423893
 H          -4.181573      -11.313756        1.761095
 H          -3.421345      -14.730952        3.942803
 H          -3.317886      -15.504083        2.358087
 H          -6.277671      -12.355265        2.766118
 H          -5.477503      -12.708180        4.211617
 H          -5.815236      -14.727310        2.852515
 H          -5.070992      -13.904863        1.548244
