20
 generated by VMD
 C         -68.291992     -188.519012      -66.934822
 N         -68.602371     -187.810883      -67.783745
 H         -68.326149     -186.968979      -63.670238
 H         -68.011803     -189.009644      -66.049599
 C         -69.266647     -187.461761      -63.469997
 C         -69.288132     -188.694046      -62.638329
 C         -70.467567     -186.569626      -63.654259
 C         -70.595711     -189.534103      -62.913055
 C         -71.707451     -187.398865      -63.752426
 C         -71.801460     -188.579102      -62.839306
 H         -69.148041     -188.580978      -61.466328
 H         -68.400917     -189.406326      -62.969604
 H         -70.506638     -185.838974      -62.832645
 H         -70.338730     -186.055908      -64.527245
 H         -70.665764     -190.307983      -62.179474
 H         -70.459358     -190.073975      -63.904587
 H         -71.929779     -187.758148      -64.823204
 H         -72.585213     -186.728546      -63.593933
 H         -71.882553     -188.182205      -61.832546
 H         -72.925697     -188.839630      -62.881737
