20
 generated by VMD
 C         -66.821503     -189.638550      -66.501503
 N         -66.233765     -189.447479      -67.513626
 H         -70.445427     -190.321960      -65.706139
 H         -67.549362     -189.913559      -65.721199
 C         -70.779541     -190.130585      -64.740265
 C         -72.011742     -190.757645      -64.095940
 C         -70.409492     -188.726715      -64.143517
 C         -73.176399     -189.873337      -64.078705
 C         -71.690071     -187.982529      -63.732140
 C         -72.805038     -188.752411      -63.173065
 H         -71.691467     -191.104782      -63.016983
 H         -72.261429     -191.732086      -64.677444
 H         -69.723412     -188.897324      -63.317284
 H         -69.633224     -188.143906      -64.807495
 H         -73.978958     -190.403793      -63.628941
 H         -73.575554     -189.567749      -65.070084
 H         -72.066299     -187.303833      -64.489914
 H         -71.311401     -187.292465      -63.016457
 H         -72.296440     -189.139206      -62.212097
 H         -73.781647     -188.156998      -62.964607
