20
 generated by VMD
 C         -47.422031     -138.321915      -45.741043
 N         -47.116333     -138.161789      -46.803745
 H         -50.529377     -138.067017      -44.610397
 H         -47.676617     -138.702011      -44.783882
 C         -51.450298     -138.501373      -44.967159
 C         -51.618919     -138.889725      -46.396870
 C         -52.691284     -138.059326      -44.226715
 C         -52.705219     -139.911606      -46.504055
 C         -53.827911     -138.998703      -44.362530
 C         -54.003998     -139.459824      -45.863419
 H         -50.657646     -139.271484      -46.661243
 H         -52.034763     -138.024551      -46.979752
 H         -52.423382     -138.181000      -43.169804
 H         -52.853661     -136.964462      -44.400639
 H         -52.418621     -140.782852      -45.955685
 H         -52.959877     -140.100815      -47.567833
 H         -54.687168     -138.345566      -44.126835
 H         -53.759663     -139.870590      -43.807735
 H         -54.704048     -140.392899      -46.081089
 H         -54.394379     -138.710068      -46.561165
