20
 generated by VMD
 C         -76.480453     -203.069977      -66.591698
 N         -77.271523     -203.516495      -65.830727
 H         -75.614700     -200.545456      -68.879471
 H         -75.927078     -202.680786      -67.388962
 C         -74.800354     -199.878098      -69.015335
 C         -74.820404     -198.436462      -68.525688
 C         -73.686424     -200.360382      -69.849930
 C         -73.457214     -197.656494      -68.801323
 C         -73.184181     -199.273376      -70.815102
 C         -72.746834     -197.973969      -70.116478
 H         -74.954742     -198.473724      -67.427170
 H         -75.651588     -197.950760      -68.901764
 H         -72.924767     -200.755600      -69.226364
 H         -74.198097     -201.142166      -70.362206
 H         -72.776749     -197.871979      -67.972145
 H         -73.687561     -196.560989      -68.791977
 H         -73.859016     -199.031021      -71.614067
 H         -72.363861     -199.644302      -71.492279
 H         -71.631584     -198.117859      -69.831619
 H         -72.768799     -197.273621      -70.926193
