20
 generated by VMD
 C         -79.044945     -209.328293      -76.973778
 N         -79.001884     -209.777405      -75.933792
 H         -77.765244     -209.982834      -73.493767
 H         -79.096725     -208.866074      -77.951591
 C         -78.131973     -210.627060      -72.746124
 C         -77.120155     -211.144226      -71.681206
 C         -79.476898     -211.394699      -73.092430
 C         -78.000755     -211.450592      -70.387032
 C         -80.017838     -212.213959      -71.836258
 C         -78.953621     -212.557602      -70.795731
 H         -76.508171     -210.297028      -71.504654
 H         -76.571602     -211.980835      -72.020355
 H         -80.192368     -210.576202      -73.478813
 H         -79.365997     -212.089127      -73.926094
 H         -78.470398     -210.583023      -69.920853
 H         -77.426628     -211.864883      -69.549271
 H         -80.462646     -213.068939      -72.180534
 H         -80.695786     -211.425766      -71.303268
 H         -79.424782     -213.104996      -69.941803
 H         -78.306778     -213.277298      -71.338806
