20
 generated by VMD
 C         -49.510105     -127.118317      -40.137833
 N         -49.600719     -126.951508      -38.984013
 H         -46.549751     -127.096771      -42.429691
 H         -49.275253     -127.240616      -41.177803
 C         -46.395615     -126.291611      -41.646675
 C         -45.251186     -126.649910      -40.605808
 C         -46.757137     -124.863632      -41.585178
 C         -44.050541     -125.634827      -40.553371
 C         -45.568192     -123.832237      -41.451996
 C         -44.665024     -124.300476      -40.277729
 H         -44.879776     -127.572701      -40.884216
 H         -45.745392     -126.679512      -39.622498
 H         -47.329231     -124.550514      -42.443180
 H         -47.259350     -124.656921      -40.617260
 H         -43.390549     -125.615829      -41.441662
 H         -43.488941     -125.942345      -39.646072
 H         -45.855022     -122.838303      -41.159721
 H         -44.833187     -123.631821      -42.288246
 H         -43.840271     -123.620033      -40.113033
 H         -45.187149     -124.307526      -39.283875
