20
 generated by VMD
 C         -12.627059      -27.732864       -4.432296
 N         -13.742294      -27.875210       -4.510588
 H         -10.668364      -29.584419       -2.702273
 H         -10.516912      -27.974566       -3.544819
 C          -9.961274      -28.942772       -3.244086
 C          -9.437665      -29.854559       -4.328941
 C          -8.761765      -28.492340       -2.378251
 C          -8.482761      -29.002975       -5.236276
 C          -7.773417      -27.689533       -3.223848
 C          -7.316441      -28.481720       -4.374584
 H         -10.331176      -30.092655       -4.869765
 H          -8.813143      -30.765337       -3.923474
 H          -9.131946      -27.820599       -1.634390
 H          -8.202143      -29.276096       -1.891628
 H          -9.080341      -28.141550       -5.686646
 H          -8.028845      -29.633095       -6.035623
 H          -6.964541      -27.528416       -2.540343
 H          -8.276886      -26.726070       -3.531283
 H          -6.710798      -27.796078       -4.990820
 H          -6.624000      -29.302353       -4.171558
