20
 generated by VMD
 C         -54.967285     -148.466568      -45.154453
 N         -54.520470     -148.675232      -44.125942
 H         -54.703571     -148.229813      -49.049042
 H         -55.206642     -148.230103      -46.208302
 C         -54.399193     -147.220581      -49.231087
 C         -53.166325     -146.957169      -50.129032
 C         -55.054138     -145.920395      -48.549591
 C         -53.253937     -145.563644      -50.990025
 C         -55.190567     -144.687531      -49.404530
 C         -53.811840     -144.354462      -50.114952
 H         -53.070389     -147.861832      -50.735729
 H         -52.271694     -146.803238      -49.542580
 H         -56.075035     -146.232010      -48.186924
 H         -54.448818     -145.702240      -47.648952
 H         -53.910065     -145.715973      -51.837856
 H         -52.263313     -145.300034      -51.482780
 H         -55.467846     -143.830917      -48.816864
 H         -56.011517     -144.802399      -50.222336
 H         -53.827347     -143.462509      -50.834873
 H         -53.135418     -143.835831      -49.376480
