20
 generated by VMD
 C         -31.005007      -93.643867      -26.126764
 N         -31.453335      -93.772392      -25.037905
 H         -33.789200      -94.270493      -28.069374
 H         -30.622431      -93.409103      -27.111532
 C         -34.079842      -93.182396      -28.189192
 C         -35.509228      -92.787498      -27.966139
 C         -33.335106      -92.480576      -29.290430
 C         -36.039742      -91.462547      -28.488325
 C         -33.894978      -91.108955      -29.583527
 C         -35.364094      -91.023918      -29.785501
 H         -35.840210      -92.685020      -26.960012
 H         -36.046917      -93.648338      -28.524197
 H         -32.227322      -92.488655      -29.083614
 H         -33.454300      -92.991661      -30.229416
 H         -35.923103      -90.648643      -27.798546
 H         -37.157158      -91.557266      -28.668295
 H         -33.368549      -90.578468      -30.340717
 H         -33.719082      -90.555641      -28.627581
 H         -35.848637      -90.033310      -29.955971
 H         -35.713219      -91.701736      -30.652822
