20
 generated by VMD
 C         -38.598888     -113.734650      -35.616848
 N         -38.046669     -114.779984      -35.628548
 H         -41.290855     -114.538795      -36.190384
 H         -39.050102     -112.804420      -35.457191
 C         -42.319626     -114.697769      -36.433376
 C         -42.614391     -114.543274      -37.810646
 C         -43.402889     -114.463501      -35.431038
 C         -43.647652     -115.551819      -38.180786
 C         -44.641464     -115.251801      -35.840679
 C         -44.959969     -115.326553      -37.328815
 H         -41.619335     -114.772377      -38.407326
 H         -42.983643     -113.488472      -38.049740
 H         -43.134426     -114.606499      -34.329639
 H         -43.676735     -113.350510      -35.378929
 H         -43.477322     -116.605110      -38.016113
 H         -43.929184     -115.387985      -39.192116
 H         -45.415165     -114.719170      -35.158043
 H         -44.724068     -116.336815      -35.407127
 H         -45.589420     -116.257957      -37.634586
 H         -45.482559     -114.457634      -37.705036
