20
 generated by VMD
 C          -1.724366       -8.637670        0.351184
 N          -2.288588       -9.186161       -0.462635
 H          -2.637671      -10.188524        2.709976
 H          -2.065507      -11.330905        3.731663
 C          -2.895340      -11.177008        3.064660
 C          -2.904057      -12.301973        1.968128
 C          -4.090707      -11.119928        3.943626
 C          -3.279605      -13.627716        2.597238
 C          -4.458293      -12.511136        4.432166
 C          -4.575871      -13.594703        3.348255
 H          -1.924844      -12.293019        1.440897
 H          -3.607835      -11.977133        1.166294
 H          -3.917669      -10.407699        4.782658
 H          -4.951178      -10.712560        3.309230
 H          -2.442975      -14.019800        3.198620
 H          -3.321637      -14.388008        1.776664
 H          -5.402247      -12.400787        5.002731
 H          -3.665396      -12.875978        5.139928
 H          -4.669750      -14.527633        3.872431
 H          -5.390624      -13.580483        2.627246
