20
 generated by VMD
 C         -28.215206      -87.115486      -27.129690
 N         -27.638817      -86.973534      -26.109640
 H         -31.126760      -88.421936      -25.369293
 H         -28.814768      -87.135803      -28.092512
 C         -32.124645      -88.165543      -25.700270
 C         -33.334885      -88.506973      -24.847523
 C         -32.367680      -88.374115      -27.120647
 C         -34.513649      -87.702499      -25.322346
 C         -33.530251      -87.486374      -27.588991
 C         -34.830654      -87.869469      -26.807022
 H         -33.236675      -88.426750      -23.787592
 H         -33.513226      -89.609978      -24.904993
 H         -31.500999      -88.174355      -27.705830
 H         -32.748585      -89.359833      -27.410192
 H         -34.389214      -86.562485      -25.207417
 H         -35.411880      -88.048485      -24.791161
 H         -33.617825      -87.751282      -28.679056
 H         -33.181221      -86.495178      -27.446493
 H         -35.609264      -87.220421      -27.145390
 H         -35.110085      -88.804207      -27.146776
