20
 generated by VMD
 C          -9.213589      -24.015142        2.043909
 N          -9.032798      -25.079044        2.358215
 H          -7.735357      -23.270039       -0.795110
 H          -8.936022      -22.708607       -1.831988
 C          -7.841318      -23.037769       -1.882136
 C          -7.614195      -24.255848       -2.808929
 C          -6.945914      -21.813446       -2.211107
 C          -7.641360      -23.751959       -4.341311
 C          -6.981810      -21.396469       -3.691843
 C          -6.594839      -22.594824       -4.557692
 H          -8.375356      -25.016935       -2.763133
 H          -6.625742      -24.787922       -2.616098
 H          -7.367713      -20.966024       -1.658108
 H          -5.911963      -22.033928       -1.889287
 H          -8.676272      -23.383972       -4.478192
 H          -7.358191      -24.520443       -5.027934
 H          -6.192810      -20.634743       -3.794913
 H          -7.932946      -21.021187       -4.051533
 H          -6.674761      -22.211210       -5.578239
 H          -5.620698      -22.967003       -4.349090
