20
 generated by VMD
 C         -30.711880      -78.184418      -25.137487
 N         -31.448654      -77.276642      -25.077972
 H         -29.513311      -77.202454      -22.880369
 H         -30.077509      -78.998672      -25.263399
 C         -28.774338      -77.965469      -22.570030
 C         -27.429766      -78.071953      -23.305845
 C         -29.356251      -79.120972      -21.827517
 C         -26.480930      -78.947182      -22.473585
 C         -28.367022      -79.942688      -21.076689
 C         -27.172293      -80.310036      -22.048283
 H         -26.967890      -77.041862      -23.518911
 H         -27.682972      -78.663437      -24.215164
 H         -30.227955      -78.834717      -21.139040
 H         -29.661850      -79.772026      -22.706348
 H         -26.088909      -78.330704      -21.676319
 H         -25.540476      -79.237999      -23.014437
 H         -28.875242      -80.759613      -20.604675
 H         -28.109756      -79.359581      -20.119333
 H         -26.594898      -81.059967      -21.636881
 H         -27.556885      -80.760292      -22.975435
