20
 generated by VMD
 C         -22.667936      -68.298706      -16.667492
 N         -22.511736      -68.884506      -15.660399
 H         -24.204439      -66.587761      -18.036625
 H         -22.570711      -67.782829      -17.584614
 C         -24.569117      -66.765732      -19.027460
 C         -23.860350      -67.312218      -20.234554
 C         -26.099041      -66.767868      -19.058104
 C         -24.518961      -68.783188      -20.429859
 C         -26.568226      -68.217690      -19.195442
 C         -26.095840      -68.890091      -20.436811
 H         -22.763197      -67.443817      -19.969963
 H         -24.031063      -66.659309      -21.113901
 H         -26.709234      -66.212708      -18.348303
 H         -26.443071      -66.264091      -20.035135
 H         -24.088888      -69.312325      -19.604231
 H         -24.196463      -69.231133      -21.386318
 H         -27.670248      -68.269493      -19.314304
 H         -26.383228      -68.790581      -18.275833
 H         -26.380976      -69.975357      -20.380848
 H         -26.314590      -68.437057      -21.402029
