20
 generated by VMD
 C         -31.185968      -79.542252      -26.258722
 N         -30.856899      -78.460007      -26.344952
 H         -28.825377      -81.018318      -25.453520
 H         -31.475380      -80.637917      -26.073820
 C         -28.889675      -81.673820      -24.501421
 C         -27.837442      -81.610039      -23.346512
 C         -29.967661      -82.723679      -24.190086
 C         -28.488813      -81.290489      -22.050291
 C         -30.504061      -82.393761      -22.847105
 C         -29.540306      -82.379402      -21.751863
 H         -27.142845      -80.857780      -23.686281
 H         -27.159363      -82.496048      -23.239058
 H         -30.787609      -82.903419      -24.858067
 H         -29.298044      -83.677361      -24.243643
 H         -28.987827      -80.354385      -22.125313
 H         -27.625313      -81.143570      -21.329359
 H         -31.370022      -83.074989      -22.723063
 H         -30.985342      -81.353012      -22.906370
 H         -30.187334      -82.131844      -20.904305
 H         -29.088203      -83.346909      -21.562246
