20
 generated by VMD
 C         -20.787258      -64.154083      -16.613033
 N         -19.758888      -63.697369      -16.868727
 H         -23.065567      -63.761578      -17.537832
 H         -21.542191      -64.811043      -16.462584
 C         -23.788404      -64.482864      -17.806007
 C         -24.590546      -64.449821      -19.078550
 C         -24.414137      -65.258675      -16.655218
 C         -24.801558      -65.808586      -19.623144
 C         -24.622829      -66.662842      -17.138210
 C         -25.442385      -66.630341      -18.509455
 H         -24.130234      -63.842503      -19.773067
 H         -25.582924      -64.015015      -19.022268
 H         -23.903254      -65.092468      -15.704312
 H         -25.422293      -64.798393      -16.442400
 H         -23.908781      -66.372917      -19.800589
 H         -25.477015      -65.903526      -20.480003
 H         -25.023729      -67.433632      -16.507366
 H         -23.606045      -67.020226      -17.446861
 H         -25.485680      -67.642761      -18.855749
 H         -26.444347      -66.149399      -18.330494
