20
 generated by VMD
 C         -73.939171     -201.300827      -65.370819
 N         -72.793030     -201.074524      -65.483772
 H         -74.838638     -198.138657      -66.788925
 H         -74.955780     -201.275253      -65.153343
 C         -74.407921     -197.549957      -67.588005
 C         -74.621536     -196.075409      -67.731750
 C         -73.727173     -198.320221      -68.764503
 C         -73.525330     -195.389496      -68.472160
 C         -73.763969     -197.454529      -69.987984
 C         -73.097794     -196.150436      -69.765228
 H         -74.827278     -195.724899      -66.718178
 H         -75.564041     -195.819458      -68.320236
 H         -72.671967     -198.493713      -68.505775
 H         -73.952827     -199.385376      -68.989807
 H         -72.621056     -195.297897      -67.881470
 H         -73.788925     -194.334839      -68.689590
 H         -74.802742     -197.216141      -70.240005
 H         -73.240219     -198.042084      -70.828186
 H         -72.018875     -196.310684      -69.812508
 H         -73.271095     -195.543762      -70.721863
