20
 generated by VMD
 C         -61.478573     -155.196228      -53.528831
 N         -62.062679     -155.363113      -54.553345
 H         -58.444244     -154.931946      -52.032589
 H         -60.932835     -155.156998      -52.554741
 C         -57.449680     -154.963455      -51.658077
 C         -57.271389     -154.468155      -50.228725
 C         -56.236874     -155.044373      -52.549179
 C         -56.090538     -154.831009      -49.435345
 C         -55.054749     -155.450958      -51.652527
 C         -54.793613     -154.637863      -50.386314
 H         -58.209980     -154.810272      -49.624107
 H         -57.313786     -153.316071      -50.287975
 H         -56.560722     -155.723160      -53.366116
 H         -56.035061     -154.093109      -53.001572
 H         -56.229916     -155.925323      -49.185341
 H         -55.967373     -154.174759      -48.499271
 H         -54.126625     -155.380508      -52.350346
 H         -55.176762     -156.456406      -51.275372
 H         -54.028709     -155.015152      -49.752369
 H         -54.588699     -153.606796      -50.603153
