20
 generated by VMD
 C         -38.425850     -108.951698      -36.628223
 N         -37.279366     -108.814491      -36.507622
 H         -41.838482     -109.853714      -36.448189
 H         -39.453373     -109.253105      -36.879974
 C         -42.004353     -110.553551      -35.575974
 C         -41.673588     -112.017593      -35.854671
 C         -42.804863     -110.305740      -34.432610
 C         -40.707043     -112.428223      -34.742172
 C         -41.925285     -110.663033      -33.172207
 C         -41.388584     -112.139458      -33.330730
 H         -41.166370     -111.996269      -36.803585
 H         -42.696423     -112.501801      -35.881218
 H         -42.975613     -109.250389      -34.594265
 H         -43.731796     -110.774475      -34.508251
 H         -39.888935     -111.783928      -34.717300
 H         -40.282726     -113.496956      -34.852016
 H         -42.452877     -110.525337      -32.209820
 H         -41.110107     -109.933586      -33.121391
 H         -40.591339     -112.416664      -32.584576
 H         -42.085617     -112.881454      -33.163357
