20
 generated by VMD
 C         -19.102215      -63.279995      -16.884392
 N         -20.176531      -62.888893      -16.993763
 H         -23.063396      -63.621639      -16.994028
 H         -18.024822      -63.467987      -16.505859
 C         -23.748793      -64.412689      -17.350809
 C         -24.366179      -64.180023      -18.698137
 C         -24.555445      -65.062019      -16.342508
 C         -24.637102      -65.452995      -19.403576
 C         -24.907122      -66.421501      -17.014610
 C         -25.532629      -66.232918      -18.400528
 H         -23.630280      -63.563477      -19.296835
 H         -25.185690      -63.439095      -18.655457
 H         -24.037790      -65.282135      -15.423300
 H         -25.427885      -64.377457      -16.156725
 H         -23.646873      -65.948723      -19.516108
 H         -25.102892      -65.328445      -20.421221
 H         -25.571138      -66.856010      -16.267965
 H         -24.058046      -67.128113      -17.043835
 H         -25.658588      -67.253258      -18.906857
 H         -26.483171      -65.671295      -18.354801
