20
 generated by VMD
 C         -78.990562     -208.119675      -76.021469
 N         -78.342972     -207.615540      -75.233528
 H         -79.455269     -210.116257      -73.333054
 H         -79.611664     -208.623825      -76.690125
 C         -78.665009     -210.208313      -72.558746
 C         -77.461777     -209.258240      -72.417595
 C         -78.931664     -211.226929      -71.489319
 C         -77.053383     -208.923309      -70.939674
 C         -78.543648     -210.743546      -70.152657
 C         -77.186836     -210.125397      -70.078453
 H         -77.664841     -208.341919      -72.925499
 H         -76.626511     -209.802979      -72.822990
 H         -79.931961     -211.695511      -71.574615
 H         -78.269875     -212.038544      -71.651283
 H         -77.660126     -208.197418      -70.412262
 H         -76.016525     -208.567398      -70.906822
 H         -78.528870     -211.512787      -69.364578
 H         -79.382935     -210.012527      -69.805367
 H         -76.987801     -209.834412      -69.023903
 H         -76.398117     -210.815018      -70.279427
