20
 generated by VMD
 C         -30.955521      -79.687737      -26.167276
 N         -30.859201      -78.558907      -26.266548
 H         -28.437723      -81.817429      -25.680075
 H         -31.145475      -80.670158      -25.796494
 C         -28.856731      -81.834465      -24.583889
 C         -27.790564      -81.533623      -23.395144
 C         -30.088648      -82.748871      -24.256372
 C         -28.510868      -81.277260      -22.096973
 C         -30.693546      -82.532570      -22.919970
 C         -29.713322      -82.391968      -21.839235
 H         -27.277006      -80.629265      -23.737839
 H         -27.107807      -82.438362      -23.350681
 H         -30.905102      -82.809151      -24.954201
 H         -29.586636      -83.795952      -24.224545
 H         -29.020382      -80.351402      -21.972490
 H         -27.715710      -81.223541      -21.356998
 H         -31.429447      -83.321495      -22.771114
 H         -31.262880      -81.515610      -22.844078
 H         -30.229544      -82.191681      -20.849262
 H         -29.176113      -83.369003      -21.646326
