20
 generated by VMD
 C         -29.431486      -74.129646      -20.319799
 N         -30.212290      -74.952103      -20.261833
 H         -26.601873      -74.152817      -18.980076
 H         -28.452751      -73.587959      -20.633722
 C         -26.282825      -73.986168      -19.997808
 C         -25.887701      -75.124184      -20.809120
 C         -25.851139      -72.623009      -20.379341
 C         -26.001770      -74.840302      -22.285625
 C         -26.088123      -72.361015      -21.919420
 C         -25.488708      -73.543465      -22.786192
 H         -26.332880      -76.049568      -20.533918
 H         -24.777279      -75.346222      -20.551260
 H         -26.451576      -71.899406      -19.751799
 H         -24.850677      -72.546013      -20.003273
 H         -27.092022      -74.758904      -22.585047
 H         -25.606611      -75.740707      -22.773609
 H         -25.776028      -71.392700      -22.259979
 H         -27.178175      -72.556633      -21.979860
 H         -25.856485      -73.439781      -23.839067
 H         -24.404009      -73.397141      -22.720509
