20
 generated by VMD
 C         -69.107574     -180.781204      -62.522472
 N         -70.092880     -180.281982      -62.133183
 H         -66.635269     -181.096344      -59.501896
 H         -68.233749     -181.217697      -62.921837
 C         -66.390495     -180.211380      -59.986404
 C         -65.119781     -180.290878      -60.780403
 C         -66.984367     -178.880524      -59.508240
 C         -64.806580     -179.062088      -61.537544
 C         -66.544907     -177.719376      -60.302631
 C         -65.031975     -177.827423      -60.666290
 H         -65.048790     -181.151031      -61.377636
 H         -64.395241     -180.369690      -60.054199
 H         -68.048798     -178.967621      -59.614754
 H         -66.785110     -178.776596      -58.349339
 H         -65.277802     -179.027695      -62.468487
 H         -63.770496     -178.987839      -61.790348
 H         -66.708069     -176.732635      -59.834049
 H         -67.094330     -177.674423      -61.251038
 H         -64.986649     -176.964264      -61.462509
 H         -64.314270     -177.522415      -59.907810
