20
 generated by VMD
 C         -68.369926     -188.499863      -67.005936
 N         -68.527115     -187.709854      -67.821114
 H         -68.335861     -187.140640      -63.906250
 H         -68.244492     -189.344055      -66.279694
 C         -69.281212     -187.440079      -63.441189
 C         -69.288132     -188.685043      -62.605183
 C         -70.439476     -186.575714      -63.624195
 C         -70.535599     -189.509918      -62.764904
 C         -71.750221     -187.351273      -63.866112
 C         -71.791504     -188.552811      -62.753147
 H         -69.190353     -188.297607      -61.482292
 H         -68.275734     -189.231339      -62.846375
 H         -70.579369     -185.872986      -62.771687
 H         -70.276054     -186.027817      -64.475037
 H         -70.631073     -190.289658      -62.019398
 H         -70.578987     -189.987991      -63.767178
 H         -71.721512     -187.777649      -64.941238
 H         -72.589279     -186.625259      -63.678928
 H         -71.771614     -188.084290      -61.748199
 H         -72.543625     -189.398376      -62.936745
