20
 generated by VMD
 C         -57.940941     -164.580917      -56.588142
 N         -57.242630     -163.801636      -57.180767
 H         -60.144100     -164.331131      -53.937824
 H         -58.650726     -165.230530      -56.090214
 C         -60.956051     -164.807587      -54.458832
 C         -61.836796     -165.891998      -53.878197
 C         -61.322308     -164.343140      -55.882679
 C         -63.314602     -165.346268      -53.926727
 C         -62.821308     -163.942383      -55.996975
 C         -63.795322     -164.924347      -55.315639
 H         -61.589256     -166.151474      -52.793293
 H         -61.672478     -166.856018      -54.354225
 H         -60.680534     -163.529617      -56.081150
 H         -60.954334     -165.209793      -56.531162
 H         -63.335957     -164.367767      -53.393021
 H         -64.015602     -166.060699      -53.500809
 H         -63.035294     -163.548111      -56.900906
 H         -62.934212     -163.005249      -55.323883
 H         -64.845726     -164.506729      -55.237530
 H         -63.805614     -165.739151      -56.042759
