20
 generated by VMD
 C         -50.720566     -129.142517      -44.581902
 N         -50.946419     -130.228867      -44.300907
 H         -49.254143     -128.287857      -41.194866
 H         -50.606850     -128.074631      -44.791420
 C         -48.175117     -128.495911      -41.306252
 C         -47.860603     -129.927338      -41.017437
 C         -47.097752     -127.577965      -40.791470
 C         -46.387379     -130.346863      -41.399448
 C         -45.738697     -127.954628      -41.370121
 C         -45.276730     -129.358337      -41.049107
 H         -48.456715     -130.598907      -41.675438
 H         -47.952213     -130.215027      -39.975914
 H         -47.325356     -126.525322      -40.971508
 H         -46.936893     -127.651436      -39.735203
 H         -46.309757     -130.359787      -42.503269
 H         -46.251785     -131.279388      -40.848415
 H         -45.022663     -127.238327      -40.879227
 H         -45.674660     -127.863976      -42.471458
 H         -44.357658     -129.637024      -41.592487
 H         -45.053432     -129.357697      -40.027683
