20
 generated by VMD
 C         -47.167965     -137.601532      -46.257877
 N         -47.170723     -136.879318      -47.101135
 H         -50.614101     -136.343552      -44.689289
 H         -47.052128     -138.122742      -45.315105
 C         -51.331875     -137.195969      -44.674267
 C         -51.364918     -138.006638      -46.046200
 C         -52.545834     -137.043747      -43.876823
 C         -52.117622     -139.300888      -45.776001
 C         -53.207138     -138.405701      -43.611580
 C         -53.454067     -139.143906      -45.053886
 H         -50.350311     -138.303757      -46.237965
 H         -51.889442     -137.475052      -46.914524
 H         -52.310326     -136.558884      -42.913139
 H         -53.182945     -136.393158      -44.441219
 H         -51.403656     -139.979095      -45.365955
 H         -52.478790     -139.816330      -46.694225
 H         -54.083107     -138.325745      -42.839912
 H         -52.492088     -139.027298      -43.042255
 H         -54.003712     -140.110275      -44.901150
 H         -54.143185     -138.414230      -45.709564
