20
 generated by VMD
 C         -11.763581      -41.413269       -6.492642
 N         -11.052048      -42.265842       -6.449030
 H         -14.758512      -42.386608       -8.284340
 H         -15.237670      -41.174236       -9.602782
 C         -15.290933      -42.203743       -9.163100
 C         -16.779055      -42.352833       -8.831712
 C         -14.663116      -43.131008      -10.228867
 C         -17.602346      -42.495472      -10.116176
 C         -15.590387      -43.142250      -11.476465
 C         -17.004038      -43.585373      -11.024625
 H         -17.088366      -41.486797       -8.235863
 H         -17.060371      -43.131538       -8.147344
 H         -13.707100      -42.780277      -10.496428
 H         -14.548440      -44.124504       -9.863051
 H         -17.582525      -41.548107      -10.637695
 H         -18.600271      -42.691658       -9.735825
 H         -15.236894      -43.959465      -12.227036
 H         -15.632677      -42.195049      -11.945863
 H         -17.616627      -43.752586      -11.943684
 H         -16.940905      -44.533226      -10.479181
