20
 generated by VMD
 C         -11.660748      -26.721798       -0.611567
 N         -12.605392      -26.366646       -1.104733
 H         -10.303038      -26.327394       -3.789560
 H          -9.469226      -25.605392       -5.079930
 C          -9.281155      -26.090668       -4.116896
 C          -8.528845      -27.393751       -4.269394
 C          -8.607740      -25.138605       -3.093617
 C          -7.030283      -27.199530       -4.383827
 C          -7.113078      -24.884472       -3.425640
 C          -6.358090      -26.237734       -3.442108
 H          -8.837140      -27.909893       -5.138623
 H          -8.771396      -28.121441       -3.487969
 H          -9.152312      -24.192268       -3.061922
 H          -8.761004      -25.477318       -1.995254
 H          -6.733109      -27.101316       -5.398535
 H          -6.680435      -28.153053       -4.022600
 H          -6.719425      -24.288227       -2.603551
 H          -7.035900      -24.363989       -4.382339
 H          -5.382671      -25.970989       -3.837116
 H          -6.265382      -26.629574       -2.398741
