20
 generated by VMD
 C         -46.736794     -124.956993      -38.213638
 N         -47.316601     -124.622276      -37.293266
 H         -44.549377     -122.163124      -37.605423
 H         -46.221115     -125.532867      -39.011700
 C         -44.820393     -122.250229      -38.683445
 C         -43.485069     -122.581512      -39.523006
 C         -45.907116     -121.473396      -39.356056
 C         -43.807137     -123.055885      -40.978634
 C         -46.151726     -122.012573      -40.800819
 C         -44.900688     -122.056770      -41.652924
 H         -42.911976     -123.467148      -39.055592
 H         -42.728287     -121.760551      -39.466827
 H         -46.912411     -121.560539      -38.834053
 H         -45.629337     -120.395248      -39.432869
 H         -44.178726     -124.201256      -40.892582
 H         -42.806282     -122.905121      -41.393509
 H         -46.873569     -121.401733      -41.297539
 H         -46.480869     -122.958633      -40.781513
 H         -45.243198     -122.486374      -42.604359
 H         -44.472256     -121.056091      -41.842743
