20
 generated by VMD
 C         -50.883560     -130.910858      -45.959732
 N         -50.459316     -129.974533      -46.542835
 H         -48.051041     -132.202484      -44.534004
 H         -50.895573     -131.626205      -45.098053
 C         -48.055645     -132.327866      -43.414829
 C         -48.517372     -133.700989      -42.924263
 C         -48.248238     -131.100632      -42.572124
 C         -48.185932     -133.915634      -41.438126
 C         -47.821106     -131.399796      -41.150681
 C         -48.546062     -132.630463      -40.603725
 H         -47.901722     -134.336365      -43.614998
 H         -49.555065     -133.761093      -43.102119
 H         -47.584728     -130.290039      -42.986019
 H         -49.265049     -130.841949      -42.465546
 H         -47.118614     -133.992844      -41.495888
 H         -48.636597     -134.846771      -41.123257
 H         -48.050388     -130.498489      -40.569305
 H         -46.700684     -131.465240      -41.180073
 H         -48.354626     -132.833328      -39.517464
 H         -49.620033     -132.528549      -40.716324
