20
 generated by VMD
 C         -20.005608      -51.905582      -10.060679
 N         -20.938723      -51.289131       -9.817444
 H         -17.748335      -49.004566      -10.384306
 H         -19.140926      -52.779968      -10.299802
 C         -17.477144      -49.163136      -11.390327
 C         -16.562378      -50.335102      -11.665456
 C         -17.238686      -47.930317      -12.199815
 C         -16.665232      -50.757378      -13.137626
 C         -17.244553      -48.216026      -13.716912
 C         -16.426785      -49.504929      -14.008177
 H         -16.776714      -51.180241      -11.037389
 H         -15.519665      -49.996162      -11.455293
 H         -17.880756      -47.096954      -11.877984
 H         -16.213610      -47.532875      -12.005328
 H         -17.580864      -51.300457      -13.436542
 H         -15.831522      -51.444519      -13.270465
 H         -16.816847      -47.317928      -14.321966
 H         -18.251558      -48.292442      -14.024681
 H         -16.396633      -49.656666      -15.088676
 H         -15.398838      -49.223255      -13.725270
