20
 generated by VMD
 C         -56.918312     -150.662506      -47.953064
 N         -57.935875     -150.758041      -48.496700
 H         -53.979042     -148.658463      -47.304649
 H         -55.964211     -150.657272      -47.440231
 C         -54.223873     -148.544296      -48.355629
 C         -53.583035     -149.377304      -49.399590
 C         -54.635468     -147.090744      -48.750072
 C         -54.188263     -149.123856      -50.762581
 C         -55.376877     -147.074051      -50.019814
 C         -54.650063     -147.751724      -51.120190
 H         -53.570297     -150.410034      -49.274601
 H         -52.565708     -148.943298      -49.527412
 H         -55.299961     -146.818680      -47.891582
 H         -53.706230     -146.442551      -48.681713
 H         -54.972076     -149.878448      -50.704559
 H         -53.483047     -149.408997      -51.566074
 H         -55.642124     -146.102859      -50.491962
 H         -56.332478     -147.598831      -49.900784
 H         -55.444408     -148.021301      -51.874233
 H         -53.925068     -147.146179      -51.680084
