20
 generated by VMD
 C         -51.151237     -130.764404      -46.315491
 N         -50.322376     -130.455261      -47.116776
 H         -47.943851     -132.079605      -44.399502
 H         -51.959671     -131.147156      -45.663746
 C         -48.132526     -132.371674      -43.365078
 C         -48.675568     -133.719864      -43.020924
 C         -48.196087     -131.293320      -42.389397
 C         -48.332386     -134.166519      -41.608585
 C         -47.841030     -131.796341      -40.901367
 C         -48.653122     -133.048721      -40.572296
 H         -48.309853     -134.444168      -43.851860
 H         -49.717468     -133.794647      -43.157326
 H         -47.480095     -130.608643      -42.662174
 H         -49.056225     -130.631760      -42.317127
 H         -47.272285     -134.438141      -41.490955
 H         -48.958305     -135.058990      -41.341064
 H         -48.124413     -131.064575      -40.097706
 H         -46.808144     -132.056656      -40.915882
 H         -48.382072     -133.432480      -39.615612
 H         -49.780636     -133.025055      -40.383564
