20
 generated by VMD
 C         -66.747131     -189.665787      -66.694847
 N         -66.501968     -189.125168      -67.719299
 H         -69.317780     -189.932648      -64.379692
 H         -66.986938     -190.347946      -65.896042
 C         -70.370079     -189.604538      -64.265259
 C         -71.481445     -190.501923      -63.953178
 C         -70.427818     -188.154388      -63.695633
 C         -72.882149     -189.835449      -64.026604
 C         -71.801315     -187.613297      -63.606586
 C         -72.887482     -188.622757      -63.176846
 H         -71.316162     -190.684052      -62.906521
 H         -71.554749     -191.297821      -64.614265
 H         -69.980011     -188.038544      -62.720482
 H         -69.899780     -187.517395      -64.305527
 H         -73.692360     -190.515808      -63.862656
 H         -73.052795     -189.498428      -65.106850
 H         -72.227028     -187.308044      -64.643875
 H         -71.856628     -186.665924      -63.050713
 H         -72.714752     -188.837051      -62.097404
 H         -73.783730     -188.209351      -63.393639
