20
 generated by VMD
 C         -50.674957     -129.152802      -42.850143
 N         -50.411583     -128.256424      -42.172256
 H         -48.336781     -127.901009      -40.299591
 H         -51.127548     -130.011169      -43.305099
 C         -47.370064     -127.598953      -40.562611
 C         -46.313534     -128.510925      -40.135899
 C         -47.160839     -126.294807      -41.163857
 C         -45.012844     -128.423752      -40.963154
 C         -45.965359     -126.217484      -42.061470
 C         -44.810375     -126.891495      -41.338825
 H         -46.700836     -129.492737      -40.200611
 H         -46.058666     -128.366776      -39.043007
 H         -48.020454     -125.940109      -41.699833
 H         -47.041840     -125.315666      -40.493553
 H         -45.099434     -129.013443      -41.866322
 H         -44.157192     -128.744339      -40.396198
 H         -45.763023     -125.117912      -42.149422
 H         -46.225136     -126.711914      -42.985268
 H         -43.818260     -126.831856      -41.925694
 H         -44.691521     -126.362839      -40.360886
