20
 generated by VMD
 C         -74.267128     -200.488342      -66.284500
 N         -73.183243     -200.891739      -66.334885
 H         -76.286224     -198.519165      -68.201790
 H         -75.204056     -199.934860      -66.158966
 C         -75.298073     -198.135498      -68.401855
 C         -74.813202     -197.030334      -67.640320
 C         -74.488960     -199.002426      -69.367943
 C         -73.594200     -196.249191      -68.293190
 C         -73.239410     -198.313873      -69.801819
 C         -72.659492     -197.336243      -68.760147
 H         -74.350655     -197.392502      -66.606071
 H         -75.534058     -196.308624      -67.413597
 H         -74.299904     -199.922775      -68.862602
 H         -75.036507     -199.257156      -70.242699
 H         -72.962303     -195.674759      -67.589905
 H         -73.911499     -195.620361      -69.128777
 H         -73.591805     -197.777008      -70.701363
 H         -72.429375     -199.001358      -70.257072
 H         -72.377136     -197.926666      -67.860062
 H         -71.650833     -196.843445      -69.148102
