20
 generated by VMD
 C         -12.574923      -30.190119       -7.807658
 N         -13.610884      -29.779102       -7.701121
 H         -11.349777      -30.306381       -5.088121
 H         -10.403667      -30.628117       -3.584132
 C         -10.820291      -31.039364       -4.455897
 C          -9.666301      -31.595116       -5.429906
 C         -11.772673      -32.183331       -4.051374
 C          -8.877140      -32.694489       -4.773793
 C         -10.881780      -33.310314       -3.433605
 C          -9.797861      -33.819721       -4.445949
 H          -8.921808      -30.850073       -5.756310
 H         -10.115530      -31.920189       -6.426024
 H         -12.467054      -31.815323       -3.288317
 H         -12.349504      -32.567238       -4.872530
 H          -8.304038      -32.377323       -3.922713
 H          -8.124444      -32.989506       -5.468437
 H         -11.470364      -34.158173       -3.049819
 H         -10.526634      -32.800392       -2.505318
 H          -9.218686      -34.603367       -4.046968
 H         -10.229329      -34.212643       -5.328453
