20
 generated by VMD
 C         -57.803799     -164.371384      -56.670696
 N         -57.255543     -163.484604      -57.178104
 H         -60.245899     -164.286697      -54.029282
 H         -58.251087     -165.231140      -56.153740
 C         -60.983162     -164.827087      -54.539387
 C         -61.807289     -165.722946      -53.703159
 C         -61.272137     -164.414459      -55.876492
 C         -63.201069     -165.121140      -53.812843
 C         -62.740910     -163.925247      -55.907757
 C         -63.762428     -164.755463      -55.171398
 H         -61.459476     -165.676239      -52.709801
 H         -61.732975     -166.739258      -54.136471
 H         -60.695923     -163.595245      -56.366791
 H         -61.158825     -165.243790      -56.494061
 H         -63.245338     -164.248459      -53.173431
 H         -63.878826     -165.709686      -53.215191
 H         -63.013184     -163.835876      -57.044880
 H         -62.629887     -163.021301      -55.379272
 H         -64.747444     -164.119568      -54.963211
 H         -64.158165     -165.725433      -55.686260
