20
 generated by VMD
 C         -40.346516     -118.807274      -35.313351
 N         -39.503811     -118.094109      -35.004257
 H         -43.103870     -116.464821      -36.259640
 H         -41.304626     -119.245499      -35.688107
 C         -43.746586     -116.745705      -37.130955
 C         -42.908100     -117.278572      -38.282001
 C         -45.204929     -116.315529      -37.335258
 C         -43.824070     -118.154045      -39.137543
 C         -45.949566     -117.053360      -38.431732
 C         -44.942101     -117.378525      -39.579704
 H         -42.196678     -117.962822      -37.914089
 H         -42.390060     -116.666679      -38.937614
 H         -45.644619     -116.489967      -36.356728
 H         -45.160507     -115.147316      -37.453411
 H         -44.307583     -119.034409      -38.657364
 H         -43.251167     -118.441536      -40.047379
 H         -46.755093     -116.415161      -38.761749
 H         -46.344433     -118.106384      -38.007725
 H         -45.562515     -117.859444      -40.265961
 H         -44.689339     -116.270241      -39.915573
