20
 generated by VMD
 C         -15.173515      -46.483768       -5.959382
 N         -14.945744      -47.384819       -5.327438
 H         -15.725364      -45.609455       -9.643038
 H         -14.855202      -45.499359      -11.107203
 C         -15.869715      -45.451447      -10.674506
 C         -16.432459      -44.099010      -11.056040
 C         -16.652323      -46.634583      -11.348594
 C         -16.526392      -44.055859      -12.558553
 C         -16.713209      -46.635647      -12.898437
 C         -17.256592      -45.225285      -13.184716
 H         -15.760448      -43.336609      -10.672593
 H         -17.409143      -43.879307      -10.572619
 H         -16.176086      -47.572834      -11.005822
 H         -17.663528      -46.749363      -10.876942
 H         -15.547990      -44.036728      -13.041329
 H         -16.919338      -43.057514      -12.830134
 H         -17.451496      -47.300083      -13.240479
 H         -15.823130      -46.890903      -13.455826
 H         -17.284355      -45.028675      -14.232703
 H         -18.286474      -45.248821      -12.768865
