20
 generated by VMD
 C         -31.031683      -75.153839      -21.516897
 N         -31.937443      -75.802521      -21.724453
 H         -28.479258      -76.148964      -20.764788
 H         -30.431944      -74.646980      -20.903852
 C         -27.453323      -75.848694      -21.087275
 C         -26.725384      -76.883614      -21.835037
 C         -26.684738      -74.633232      -20.664742
 C         -25.721912      -76.355087      -22.842602
 C         -25.683487      -74.169693      -21.669409
 C         -24.806831      -75.234550      -22.284157
 H         -27.507093      -77.523849      -22.272072
 H         -26.217325      -77.487511      -21.023293
 H         -27.371279      -73.867378      -20.436184
 H         -26.217136      -74.783791      -19.756893
 H         -26.392378      -75.920952      -23.586475
 H         -25.153223      -77.109016      -23.379574
 H         -25.041405      -73.456070      -21.123371
 H         -26.119547      -73.599648      -22.496864
 H         -24.270964      -74.656525      -23.060528
 H         -24.193279      -75.761597      -21.513733
