20
 generated by VMD
 C         -20.354797      -61.827435      -17.596203
 N         -19.573179      -61.457603      -16.788866
 H         -21.783180      -65.218887      -16.755493
 H         -20.886497      -62.062958      -18.511833
 C         -22.843737      -65.073753      -16.924109
 C         -23.188753      -64.355812      -18.250237
 C         -23.898705      -65.308701      -16.006477
 C         -24.453321      -64.705261      -18.895645
 C         -25.207771      -65.654556      -16.774149
 C         -25.631184      -64.672272      -17.976635
 H         -22.332424      -64.555328      -18.956324
 H         -23.034256      -63.206020      -17.961412
 H         -23.833447      -65.965118      -15.218552
 H         -24.091705      -64.342743      -15.435450
 H         -24.366253      -65.803505      -19.191029
 H         -24.667627      -64.081123      -19.794588
 H         -26.013456      -65.769081      -16.043383
 H         -24.994120      -66.608063      -17.306440
 H         -26.398535      -65.259598      -18.433775
 H         -25.925674      -63.612438      -17.622087
