20
 generated by VMD
 C         -38.019569     -109.834152      -36.313622
 N         -37.439594     -108.894196      -36.007870
 H         -40.616611     -112.571808      -37.058807
 H         -38.516586     -110.786835      -36.655689
 C         -41.266754     -112.786812      -36.209232
 C         -42.365128     -113.739876      -36.474091
 C         -41.548351     -111.712242      -35.233334
 C         -43.262318     -114.141899      -35.328373
 C         -42.417709     -112.094681      -34.049725
 C         -43.640209     -112.945786      -34.457458
 H         -41.944527     -114.662224      -36.833130
 H         -42.998566     -113.174461      -37.201004
 H         -40.480968     -111.493141      -34.858780
 H         -41.968300     -110.820976      -35.708397
 H         -42.838058     -115.002502      -34.750504
 H         -44.110195     -114.613907      -35.676304
 H         -42.655663     -111.299797      -33.389370
 H         -41.718685     -112.683792      -33.432106
 H         -44.336697     -113.197968      -33.562172
 H         -44.194050     -112.263092      -35.062984
