20
 generated by VMD
 C         -23.542852      -68.735786      -16.568960
 N         -23.239767      -69.526337      -15.766781
 H         -23.796486      -66.170982      -18.868183
 H         -23.737249      -68.092033      -17.362604
 C         -24.438578      -66.946846      -19.381298
 C         -23.944809      -67.735603      -20.522972
 C         -25.949873      -67.012779      -19.096031
 C         -24.532946      -69.162262      -20.726187
 C         -26.392588      -68.481361      -19.167389
 C         -26.022709      -69.225273      -20.584166
 H         -22.812000      -67.842453      -20.352528
 H         -23.993683      -67.063179      -21.454851
 H         -26.128880      -66.717247      -18.045790
 H         -26.445080      -66.427956      -19.839012
 H         -24.044487      -69.826126      -19.931587
 H         -24.205687      -69.565674      -21.739147
 H         -27.443504      -68.612839      -18.827398
 H         -25.710875      -69.032860      -18.506031
 H         -26.284189      -70.278938      -20.606552
 H         -26.587336      -68.720802      -21.394510
