20
 generated by VMD
 C         -19.633976      -63.942112      -16.505795
 N         -20.079235      -63.064415      -17.151525
 H         -23.339006      -63.272221      -17.133486
 H         -19.423580      -64.592850      -15.702221
 C         -23.906404      -64.103020      -17.508030
 C         -24.440260      -64.279404      -18.962673
 C         -24.434572      -65.184631      -16.557348
 C         -24.716043      -65.698822      -19.368660
 C         -24.800087      -66.589424      -17.177191
 C         -25.581724      -66.489456      -18.415567
 H         -23.725107      -63.625118      -19.593369
 H         -25.350668      -63.644726      -19.173710
 H         -23.607906      -65.313393      -15.741071
 H         -25.395386      -64.821938      -16.133461
 H         -23.733625      -66.144508      -19.584358
 H         -25.161234      -65.590706      -20.332556
 H         -25.359951      -67.265358      -16.489910
 H         -23.869606      -67.140335      -17.303875
 H         -25.492945      -67.556282      -18.875776
 H         -26.613708      -66.166855      -18.242617
