20
 generated by VMD
 C         -26.983086      -72.193359      -17.539368
 N         -27.523729      -73.191620      -17.283163
 H         -24.598341      -70.117607      -18.676672
 H         -26.331198      -71.357071      -17.743248
 C         -25.002157      -70.515251      -19.595104
 C         -24.354862      -71.520859      -20.395679
 C         -25.622711      -69.432541      -20.552502
 C         -25.243671      -72.264359      -21.382923
 C         -26.590408      -70.176361      -21.524721
 C         -25.816626      -71.173584      -22.393644
 H         -23.928497      -72.407104      -19.661461
 H         -23.437870      -70.996361      -20.906790
 H         -26.144350      -68.768402      -19.858463
 H         -24.835941      -68.910500      -21.207972
 H         -26.090702      -72.835747      -20.911938
 H         -24.665770      -73.000824      -21.948481
 H         -27.111620      -69.432632      -22.136412
 H         -27.316214      -70.712883      -20.887676
 H         -26.606968      -71.741249      -22.922859
 H         -25.059147      -70.596405      -22.993244
