20
 generated by VMD
 C          -5.823786      -21.872061        1.897892
 N          -6.570719      -22.667725        2.120785
 H          -5.168414      -19.156958       -0.938551
 H          -6.368645      -20.271456       -0.052783
 C          -6.097940      -19.781851       -1.004175
 C          -5.716250      -20.959044       -1.909994
 C          -7.165348      -18.975582       -1.727148
 C          -6.785586      -21.872868       -2.334012
 C          -8.318281      -19.832514       -2.198574
 C          -7.948451      -21.125811       -2.937393
 H          -4.885348      -21.494715       -1.353759
 H          -5.181843      -20.626619       -2.791853
 H          -7.438161      -18.065420       -1.085050
 H          -6.601038      -18.544102       -2.578341
 H          -7.169559      -22.388948       -1.426773
 H          -6.354407      -22.618715       -3.014013
 H          -9.007434      -19.250328       -2.799206
 H          -8.828787      -20.170202       -1.275873
 H          -8.839628      -21.799694       -3.097355
 H          -7.648529      -20.851908       -3.989273
