20
 generated by VMD
 C         -59.907875     -156.913666      -56.503155
 N         -60.951267     -156.477875      -56.492477
 H         -59.700039     -157.346344      -53.098003
 H         -58.909027     -157.236435      -56.475811
 C         -58.904083     -157.870346      -52.701778
 C         -57.725891     -157.078445      -52.365547
 C         -58.969791     -159.378204      -52.471687
 C         -57.392113     -157.449799      -50.880680
 C         -58.426559     -159.692551      -51.047073
 C         -57.132500     -158.993149      -50.659176
 H         -57.924538     -155.951416      -52.357468
 H         -56.986523     -157.227310      -53.064419
 H         -59.937546     -159.762070      -52.404175
 H         -58.442398     -159.763550      -53.338406
 H         -58.188541     -157.138947      -50.356861
 H         -56.535301     -156.821884      -50.591896
 H         -58.147079     -160.774231      -51.117180
 H         -59.282963     -159.596863      -50.329426
 H         -56.881752     -159.238388      -49.699608
 H         -56.216141     -159.417465      -51.211136
