20
 generated by VMD
 C         -58.859573     -161.286789      -56.528175
 N         -58.515263     -160.195038      -56.939106
 H         -59.132908     -164.219803      -55.113945
 H         -59.129391     -162.299088      -56.179031
 C         -59.820442     -163.623337      -54.553951
 C         -59.470795     -163.267120      -53.144066
 C         -61.346340     -163.763748      -55.007336
 C         -60.406017     -162.219299      -52.548096
 C         -62.022881     -162.421112      -54.573952
 C         -61.923557     -162.270859      -53.027344
 H         -58.398140     -163.057510      -53.052628
 H         -59.655495     -164.117737      -52.557388
 H         -61.414742     -163.886551      -56.154076
 H         -61.853825     -164.540131      -54.447094
 H         -60.052120     -161.257248      -52.949028
 H         -60.097233     -162.221512      -51.429462
 H         -63.071003     -162.345734      -55.056923
 H         -61.653973     -161.498840      -55.111183
 H         -62.255295     -161.252182      -52.695934
 H         -62.426487     -163.070190      -52.488075
