20
 generated by VMD
 C         -39.055359      -98.890511      -27.890877
 N         -38.570545      -99.897224      -27.621412
 H         -37.388161      -98.328896      -30.666271
 H         -39.570587      -98.066353      -28.208096
 C         -36.385548      -98.003044      -30.767920
 C         -35.667263      -98.245171      -32.029259
 C         -35.744415      -97.311874      -29.578600
 C         -34.386189      -97.465324      -32.316303
 C         -34.392593      -96.580833      -29.920252
 C         -33.533836      -97.126503      -31.078724
 H         -36.503826      -97.850212      -32.648510
 H         -35.645821      -99.291031      -32.254551
 H         -36.506214      -96.671516      -29.093258
 H         -35.520515      -98.041016      -28.861994
 H         -34.724686      -96.510292      -32.617569
 H         -33.890038      -98.062386      -33.117004
 H         -33.780540      -96.429688      -29.012594
 H         -34.648582      -95.639618      -30.258448
 H         -32.788719      -96.462479      -31.479256
 H         -32.982929      -98.036697      -30.616615
