20
 generated by VMD
 C         -79.192970     -206.818985      -75.344559
 N         -79.022583     -207.150375      -76.468498
 H         -79.060013     -209.750000      -72.923447
 H         -79.351585     -206.768066      -74.210808
 C         -78.167953     -210.097046      -72.369583
 C         -76.923012     -209.267029      -72.145271
 C         -78.370270     -211.080765      -71.203766
 C         -76.947853     -208.407928      -70.772446
 C         -78.256508     -210.432831      -69.783371
 C         -77.017059     -209.587738      -69.559868
 H         -77.058022     -208.508057      -72.937134
 H         -75.948944     -209.774658      -72.302116
 H         -79.331955     -211.529053      -71.447189
 H         -77.707275     -211.955688      -71.179039
 H         -77.796463     -207.719040      -70.901825
 H         -75.997398     -207.822266      -70.785698
 H         -78.255440     -211.188278      -68.894135
 H         -79.154274     -209.859802      -69.684052
 H         -76.951706     -209.043915      -68.652893
 H         -76.232841     -210.345535      -69.699417
