20
 generated by VMD
 C         -30.746168      -78.378487      -25.264172
 N         -31.272860      -77.399200      -25.006865
 H         -29.138515      -77.008652      -22.486761
 H         -30.145611      -79.374802      -25.437468
 C         -28.671293      -77.987885      -22.511421
 C         -27.485676      -78.281403      -23.338892
 C         -29.480265      -79.203384      -22.055094
 C         -26.633192      -79.078369      -22.458429
 C         -28.633699      -80.224136      -21.353245
 C         -27.226576      -80.305710      -21.921305
 H         -26.941978      -77.332001      -23.551538
 H         -27.740520      -78.931808      -24.225315
 H         -30.201000      -78.767578      -21.465677
 H         -30.000719      -79.595901      -22.978134
 H         -26.145571      -78.617966      -21.581682
 H         -25.745556      -79.235092      -23.127861
 H         -29.257551      -81.158203      -21.379513
 H         -28.632614      -79.894936      -20.263056
 H         -26.453314      -80.900223      -21.329466
 H         -27.413975      -80.968849      -22.828503
