20
 generated by VMD
 C         -57.927940     -150.668503      -48.769756
 N         -58.007626     -151.778748      -48.641243
 H         -55.504005     -149.681534      -47.724579
 H         -57.969700     -149.594513      -48.906925
 C         -55.069744     -149.321915      -48.604523
 C         -54.366474     -150.207703      -49.538517
 C         -55.076931     -147.817673      -48.904152
 C         -54.127842     -149.792297      -50.956230
 C         -55.019295     -147.620789      -50.420673
 C         -53.882294     -148.360672      -50.990631
 H         -54.968643     -151.128113      -49.528168
 H         -53.322620     -150.344299      -49.162788
 H         -56.030769     -147.423965      -48.596081
 H         -54.199173     -147.467972      -48.323860
 H         -55.092613     -149.931351      -51.459042
 H         -53.328403     -150.276123      -51.588387
 H         -54.776569     -146.622879      -50.536354
 H         -56.138176     -147.711258      -50.774761
 H         -53.631340     -148.154938      -52.045040
 H         -52.913338     -148.205566      -50.494240
