20
 generated by VMD
 C         -70.171181     -198.530350      -64.225868
 N         -69.943947     -198.240799      -65.317833
 H         -72.913383     -196.727631      -66.483047
 H         -70.092415     -198.920639      -63.202106
 C         -73.499657     -195.884613      -66.889366
 C         -73.281837     -194.408264      -66.482712
 C         -74.423477     -196.179764      -68.073792
 C         -73.140572     -193.378647      -67.667419
 C         -74.838539     -194.908859      -68.831413
 C         -73.678581     -193.976822      -69.030296
 H         -72.308083     -194.292435      -65.920380
 H         -73.996399     -194.091339      -65.797523
 H         -73.985840     -196.876328      -68.877892
 H         -75.368401     -196.753387      -67.740753
 H         -72.106209     -193.013062      -67.713348
 H         -73.843773     -192.554321      -67.360672
 H         -75.573540     -194.409317      -68.175865
 H         -75.346947     -194.904572      -69.772881
 H         -72.831009     -194.427338      -69.492294
 H         -74.019035     -193.025116      -69.704338
