20
 generated by VMD
 C         -56.657051     -150.144165      -47.622017
 N         -57.712635     -150.399826      -48.086048
 H         -53.251949     -148.139267      -47.412750
 H         -55.707031     -149.770035      -47.319027
 C         -53.626831     -147.926025      -48.370529
 C         -53.097694     -148.686829      -49.680397
 C         -54.557686     -146.787888      -48.487953
 C         -54.099319     -148.886688      -50.851505
 C         -55.598343     -146.927979      -49.644089
 C         -54.930870     -147.566620      -50.966640
 H         -52.959461     -149.722122      -49.273602
 H         -52.200691     -148.155472      -49.916103
 H         -54.958717     -146.501923      -47.454636
 H         -54.012638     -145.941620      -48.888966
 H         -54.764214     -149.779297      -50.604656
 H         -53.493332     -149.052872      -51.745152
 H         -56.045322     -145.887878      -49.989773
 H         -56.430088     -147.557327      -49.228741
 H         -55.849560     -147.859467      -51.553169
 H         -54.424545     -146.785110      -51.561989
