20
 generated by VMD
 C         -70.436790     -182.310287      -63.729050
 N         -69.485809     -182.768372      -64.209007
 H         -68.467224     -180.414459      -62.310467
 H         -71.235985     -181.875031      -63.220272
 C         -67.771942     -180.494965      -61.490219
 C         -67.482933     -181.909286      -61.051262
 C         -67.242325     -179.386551      -60.749844
 C         -65.946281     -182.046219      -61.018990
 C         -65.723328     -179.506805      -60.608498
 C         -65.371780     -180.881012      -60.227726
 H         -68.025490     -182.757965      -61.432590
 H         -67.755363     -182.070648      -59.971291
 H         -67.636559     -178.543243      -61.159897
 H         -67.737984     -179.383057      -59.739590
 H         -65.502884     -181.907623      -62.031807
 H         -65.531372     -182.914154      -60.461937
 H         -65.407928     -178.783981      -59.845268
 H         -65.291397     -179.349411      -61.640347
 H         -64.325836     -180.942154      -60.332424
 H         -65.679054     -181.213425      -59.151955
