20
 generated by VMD
 C         -78.275597     -204.271423      -69.328613
 N         -79.055168     -203.824036      -70.001175
 H         -75.892807     -202.599640      -67.720207
 H         -77.402298     -204.721680      -68.838966
 C         -75.236443     -202.226364      -68.448647
 C         -75.453140     -200.821960      -69.043808
 C         -74.220787     -203.017349      -69.108505
 C         -74.849571     -200.892136      -70.574089
 C         -72.992210     -202.146500      -69.481697
 C         -73.344185     -201.137375      -70.623154
 H         -74.984863     -200.092972      -68.405685
 H         -76.584343     -200.650574      -69.048218
 H         -73.996849     -203.858841      -68.489090
 H         -74.726707     -203.620987      -69.912231
 H         -75.104927     -199.989655      -71.078560
 H         -75.308983     -201.774460      -71.064240
 H         -72.135635     -202.722107      -69.873169
 H         -72.525795     -201.772720      -68.554512
 H         -72.713745     -200.130692      -70.481644
 H         -73.016045     -201.575851      -71.573669
