20
 generated by VMD
 C         -12.434537      -27.421188       -4.678284
 N         -13.266367      -28.169828       -4.802503
 H         -10.783456      -30.257067       -2.735198
 H         -10.853512      -28.729000       -3.702405
 C         -10.118174      -29.507393       -3.311811
 C          -9.533417      -30.231989       -4.458271
 C          -9.106404      -28.802294       -2.400050
 C          -8.676784      -29.302473       -5.299449
 C          -8.123434      -28.000206       -3.148164
 C          -7.586723      -28.644085       -4.424646
 H         -10.372668      -30.640759       -5.088015
 H          -8.922222      -31.063988       -4.167159
 H          -9.656591      -28.158009       -1.716261
 H          -8.577552      -29.578856       -1.896265
 H          -9.335249      -28.573082       -5.827962
 H          -8.223804      -29.925957       -6.135454
 H          -7.245959      -27.846203       -2.475163
 H          -8.484102      -27.022568       -3.443438
 H          -7.113203      -27.833776       -4.977372
 H          -6.735147      -29.255533       -4.172750
