20
 generated by VMD
 C         -69.581436     -196.134094      -65.112679
 N         -68.568306     -196.700699      -65.335175
 H         -71.947044     -194.238312      -65.248108
 H         -70.625427     -195.826035      -64.941925
 C         -72.143311     -193.918320      -66.293190
 C         -72.242439     -192.443130      -66.585464
 C         -73.011909     -194.791473      -67.207436
 C         -73.650475     -191.957886      -66.607155
 C         -74.399681     -194.349228      -67.301437
 C         -74.562363     -192.841171      -67.481735
 H         -71.670128     -192.284515      -67.524788
 H         -71.628464     -191.824066      -65.944077
 H         -72.491928     -194.810303      -68.180908
 H         -72.889816     -195.817245      -66.837379
 H         -73.589249     -190.927521      -66.973198
 H         -74.197258     -191.923309      -65.656342
 H         -74.873459     -194.658829      -66.333664
 H         -74.915550     -194.889282      -68.082718
 H         -74.417282     -192.567291      -68.474129
 H         -75.749855     -192.666092      -67.290977
