20
 generated by VMD
 C         -70.342896     -183.406815      -66.202148
 N         -69.236382     -183.059479      -65.987953
 H         -68.737587     -184.791168      -63.189632
 H         -71.308655     -183.714020      -66.442574
 C         -68.323936     -184.321167      -62.316872
 C         -68.350288     -184.719727      -60.838886
 C         -67.838715     -182.971268      -62.710388
 C         -67.364555     -184.056610      -59.930607
 C         -67.089195     -182.182968      -61.637577
 C         -67.585854     -182.457123      -60.204205
 H         -68.186798     -185.798264      -60.729118
 H         -69.453857     -184.480530      -60.577057
 H         -67.043922     -183.009933      -63.531418
 H         -68.727318     -182.478333      -63.022308
 H         -66.331032     -184.300400      -60.220951
 H         -67.496063     -184.186157      -58.807014
 H         -67.101250     -181.118805      -61.840244
 H         -66.146790     -182.719162      -61.786274
 H         -66.750954     -181.853317      -59.588398
 H         -68.553444     -182.157135      -59.829559
