20
 generated by VMD
 C         -23.627285      -69.285248      -16.638956
 N         -23.925585      -69.913918      -15.710423
 H         -23.863270      -66.363480      -19.279814
 H         -23.402475      -68.556625      -17.520781
 C         -24.456625      -67.196373      -19.415972
 C         -23.928846      -68.036400      -20.605240
 C         -25.903820      -67.246330      -19.318274
 C         -24.567562      -69.455643      -20.819214
 C         -26.401848      -68.718811      -19.448244
 C         -26.112045      -69.381165      -20.722713
 H         -22.818697      -68.248520      -20.388529
 H         -24.011324      -67.498940      -21.585369
 H         -26.302608      -66.912018      -18.316889
 H         -26.485077      -66.508102      -20.087715
 H         -24.342842      -70.097176      -19.976675
 H         -24.255695      -69.957939      -21.685472
 H         -27.435200      -68.775864      -19.307356
 H         -26.006578      -69.235733      -18.638128
 H         -26.525072      -70.421371      -20.591324
 H         -26.481514      -68.963127      -21.680870
