20
 generated by VMD
 C         -10.429036      -35.645649       -8.118384
 N         -10.128405      -35.910686       -9.175101
 H         -13.487646      -37.035156       -6.564793
 H         -14.691113      -38.125832       -5.869642
 C         -14.100556      -37.982147       -6.741916
 C         -13.080717      -39.188953       -6.793664
 C         -15.018509      -37.991497       -7.936541
 C         -13.864807      -40.582829       -6.894450
 C         -15.781585      -39.327705       -8.015710
 C         -14.859115      -40.603668       -8.080331
 H         -12.530184      -39.228275       -5.861044
 H         -12.447277      -39.063713       -7.641760
 H         -15.691684      -37.162518       -7.691912
 H         -14.382348      -37.760914       -8.830470
 H         -14.471903      -40.702000       -5.918746
 H         -13.114897      -41.379944       -7.046759
 H         -16.411652      -39.273708       -8.935127
 H         -16.479279      -39.435753       -7.158000
 H         -15.498277      -41.516598       -8.026875
 H         -14.308894      -40.611439       -9.049249
