20
 generated by VMD
 C         -29.863440      -74.002907      -20.569304
 N         -29.956562      -75.115585      -20.284864
 H         -26.668707      -74.619911      -19.052170
 H         -29.527164      -72.925995      -20.887346
 C         -26.521437      -74.263962      -20.063030
 C         -26.013123      -75.358742      -20.962873
 C         -26.015570      -72.818626      -20.385416
 C         -26.083502      -75.104248      -22.421434
 C         -26.052036      -72.474876      -21.905815
 C         -25.275236      -73.713791      -22.607977
 H         -26.653584      -76.289520      -20.751993
 H         -24.979843      -75.460548      -20.731403
 H         -26.624126      -72.084869      -19.974649
 H         -24.972677      -72.768448      -20.002689
 H         -27.009863      -74.978218      -22.986853
 H         -25.559608      -75.974190      -22.798965
 H         -25.522596      -71.517487      -22.176256
 H         -27.006407      -72.329544      -22.483702
 H         -25.232016      -73.547707      -23.667646
 H         -24.219036      -73.800125      -22.271461
