20
 generated by VMD
 C         -23.746052      -69.007401      -16.561747
 N         -23.563509      -69.795059      -15.720700
 H         -23.775002      -66.271698      -19.053583
 H         -23.757250      -68.283760      -17.328835
 C         -24.355946      -67.074333      -19.444685
 C         -24.059793      -67.851807      -20.622467
 C         -25.827057      -67.103264      -19.168804
 C         -24.490395      -69.295555      -20.757444
 C         -26.420938      -68.605957      -19.351770
 C         -26.017525      -69.415703      -20.646944
 H         -22.941994      -67.921227      -20.834478
 H         -24.569336      -67.397049      -21.578033
 H         -26.038561      -66.683380      -18.226810
 H         -26.276937      -66.425858      -19.785315
 H         -23.994263      -69.885406      -19.974302
 H         -24.244404      -69.751854      -21.719259
 H         -27.477297      -68.485847      -19.284565
 H         -26.164267      -69.249619      -18.551872
 H         -26.349491      -70.429634      -20.530352
 H         -26.680832      -68.971367      -21.346670
