20
 generated by VMD
 C          -2.181793       -9.074658        0.734604
 N          -1.635344       -9.631497       -0.035297
 H          -2.611300      -11.937951        2.079114
 H          -3.356482      -12.121304        3.648494
 C          -3.289363      -12.548623        2.624964
 C          -2.826896      -14.024505        2.658966
 C          -4.632678      -12.357464        1.960802
 C          -3.914646      -14.926183        3.105395
 C          -5.718006      -13.327400        2.596806
 C          -5.245357      -14.771401        2.450882
 H          -2.032186      -13.921547        3.393906
 H          -2.422094      -14.222337        1.721698
 H          -5.014542      -11.347964        2.095503
 H          -4.550974      -12.569419        0.916738
 H          -4.066805      -14.787028        4.149369
 H          -3.547318      -15.950882        3.011878
 H          -6.729780      -13.250971        2.094983
 H          -5.819183      -13.057300        3.671626
 H          -5.939975      -15.516517        2.895059
 H          -5.093155      -15.103478        1.406476
