20
 generated by VMD
 C         -15.117146      -46.112083       -6.498164
 N         -14.706985      -47.081581       -6.161839
 H         -15.719585      -44.533611       -9.246751
 H         -14.615484      -44.656918      -10.665303
 C         -15.667393      -44.768867      -10.318580
 C         -16.444504      -43.728836      -11.094656
 C         -16.232386      -46.162090      -10.581196
 C         -16.601408      -43.856228      -12.584037
 C         -16.473700      -46.326374      -12.095242
 C         -17.274799      -45.214558      -12.757701
 H         -16.003698      -42.768921      -10.797646
 H         -17.408813      -43.854485      -10.601802
 H         -15.634956      -46.981750      -10.287888
 H         -17.174198      -46.203411      -10.032026
 H         -15.668845      -43.861835      -13.166538
 H         -17.311579      -43.089218      -12.931991
 H         -17.096897      -47.187637      -12.211576
 H         -15.486349      -46.515278      -12.626087
 H         -17.454626      -45.286953      -13.835143
 H         -18.333754      -45.250954      -12.325606
