20
 generated by VMD
 C         -61.647076     -156.065948      -54.187111
 N         -61.169685     -155.011948      -54.228199
 H         -58.714203     -155.130432      -52.025677
 H         -62.065571     -157.015945      -54.378117
 C         -57.735291     -155.204437      -51.577454
 C         -57.456982     -154.448883      -50.325119
 C         -56.662189     -155.420547      -52.556530
 C         -56.100956     -154.982819      -49.568352
 C         -55.487411     -155.921616      -51.772545
 C         -55.028873     -155.132950      -50.532471
 H         -58.369026     -154.586563      -49.731281
 H         -57.249435     -153.301331      -50.498863
 H         -57.045685     -156.175446      -53.200466
 H         -56.218700     -154.631882      -53.133411
 H         -56.317852     -156.035553      -49.206646
 H         -55.727108     -154.252106      -48.888878
 H         -54.676937     -155.977798      -52.475277
 H         -55.731190     -156.954330      -51.342415
 H         -54.159164     -155.526749      -50.161545
 H         -54.691982     -154.072693      -50.838932
