20
 generated by VMD
 C         -78.625984     -210.285706      -76.332024
 N         -77.537102     -210.576172      -76.616989
 H         -79.784729     -212.023346      -74.755409
 H         -79.602463     -210.085556      -76.073494
 C         -79.640976     -212.415955      -73.729630
 C         -78.287247     -212.595795      -73.140442
 C         -80.894333     -213.188583      -73.168274
 C         -78.375999     -212.704636      -71.543953
 C         -80.949364     -213.641205      -71.726311
 C         -79.461929     -213.841782      -71.321320
 H         -77.679482     -211.695770      -73.304131
 H         -77.908798     -213.492615      -73.573578
 H         -81.832993     -212.765793      -73.483742
 H         -80.928276     -214.063736      -73.881004
 H         -78.708427     -211.753799      -71.055618
 H         -77.377678     -213.039551      -71.222260
 H         -81.494781     -214.498032      -71.498459
 H         -81.230400     -212.813660      -70.949516
 H         -79.436996     -214.084122      -70.254631
 H         -79.082138     -214.764908      -71.751045
