20
 generated by VMD
 C         -74.239212     -200.578064      -66.155205
 N         -73.138046     -200.908936      -66.322777
 H         -76.083229     -198.716461      -67.862022
 H         -75.306412     -200.560944      -66.191872
 C         -75.265518     -198.157486      -68.318710
 C         -74.828461     -196.821960      -67.684540
 C         -74.489883     -198.939453      -69.295456
 C         -73.595154     -196.236313      -68.313812
 C         -73.256355     -198.201431      -69.858215
 C         -72.580795     -197.332214      -68.825684
 H         -74.657524     -197.073090      -66.663986
 H         -75.723778     -196.073029      -67.731087
 H         -74.156219     -199.896271      -68.926689
 H         -75.128448     -199.103378      -70.132896
 H         -73.263176     -195.569580      -67.538132
 H         -73.960617     -195.653061      -69.121277
 H         -73.417992     -197.574982      -70.738647
 H         -72.637222     -198.975098      -70.136551
 H         -72.159790     -198.009232      -67.954926
 H         -71.764778     -196.856964      -69.256462
