20
 generated by VMD
 C         -21.007610      -52.236900       -9.623258
 N         -21.331896      -52.413673      -10.721962
 H         -19.246696      -49.877831      -11.752148
 H         -20.695055      -52.252518       -8.685197
 C         -18.286081      -50.058678      -12.255423
 C         -17.780792      -51.430809      -12.659895
 C         -17.357922      -48.904758      -12.234211
 C         -16.861317      -51.448933      -13.920444
 C         -16.471592      -48.854931      -13.474791
 C         -15.891608      -50.268356      -13.648132
 H         -18.638411      -52.066650      -12.943503
 H         -17.342844      -51.899433      -11.814784
 H         -17.981825      -48.025024      -12.143089
 H         -16.844103      -48.897671      -11.271579
 H         -17.336283      -51.303177      -14.885832
 H         -16.261885      -52.376892      -13.885696
 H         -15.691106      -48.118961      -13.428073
 H         -17.096163      -48.628235      -14.359285
 H         -15.194550      -50.102116      -14.534885
 H         -15.178729      -50.513042      -12.797956
