20
 generated by VMD
 C         -79.954643     -206.847565      -74.069252
 N         -80.547829     -207.098801      -75.002464
 H         -76.950356     -206.872040      -72.737350
 H         -79.523117     -206.741943      -73.075920
 C         -76.663887     -207.463913      -71.962387
 C         -75.269112     -207.257950      -71.404800
 C         -77.405396     -208.658020      -71.459877
 C         -75.558914     -206.919907      -69.954887
 C         -77.653320     -208.520752      -69.967789
 C         -76.352913     -207.963242      -69.187996
 H         -74.781677     -206.375778      -71.828766
 H         -74.713249     -208.091751      -71.752342
 H         -78.413086     -208.663406      -71.984489
 H         -76.965698     -209.635300      -71.685669
 H         -76.087570     -205.927353      -69.970093
 H         -74.538170     -206.822617      -69.585892
 H         -78.184120     -209.431198      -69.446358
 H         -78.303818     -207.661346      -69.812943
 H         -76.435257     -207.626236      -68.213150
 H         -75.714005     -208.871597      -69.004639
