20
 generated by VMD
 C         -69.038086     -187.098175      -67.802338
 N         -67.939362     -187.432419      -67.580551
 H         -68.226852     -187.003738      -64.105797
 H         -69.983772     -186.845566      -68.140839
 C         -69.089241     -187.465759      -63.671467
 C         -68.937271     -187.886108      -62.126289
 C         -70.414940     -186.911987      -64.082497
 C         -70.227493     -188.568771      -61.641438
 C         -71.568581     -187.927368      -63.679588
 C         -71.597733     -188.178436      -62.202785
 H         -68.784775     -187.084213      -61.515537
 H         -68.072731     -188.490982      -62.144466
 H         -70.699890     -185.889587      -63.795918
 H         -70.468910     -186.882385      -65.164825
 H         -70.277229     -188.531433      -60.584888
 H         -70.179123     -189.640915      -61.959919
 H         -71.399445     -188.868164      -64.173225
 H         -72.424408     -187.394547      -64.009323
 H         -71.799904     -187.230789      -61.602566
 H         -72.480019     -188.973419      -62.139259
