20
 generated by VMD
 C         -60.216251     -156.161621      -55.784237
 N         -60.581852     -155.093811      -55.551189
 H         -59.905304     -157.836395      -52.564877
 H         -59.873936     -157.181076      -56.017551
 C         -58.950012     -157.730743      -52.123493
 C         -58.266964     -156.354568      -52.196507
 C         -58.114311     -158.885300      -51.658543
 C         -57.178036     -156.026703      -51.069462
 C         -56.989151     -158.530197      -50.662052
 C         -56.182861     -157.242935      -51.040222
 H         -59.038376     -155.592712      -52.226959
 H         -57.724060     -156.450333      -53.107040
 H         -58.867844     -159.640427      -51.210014
 H         -57.743084     -159.288498      -52.609585
 H         -57.734962     -156.002182      -50.157906
 H         -56.649803     -155.093781      -51.263214
 H         -56.306068     -159.421585      -50.748341
 H         -57.417580     -158.502029      -49.667854
 H         -55.494980     -157.153580      -50.149296
 H         -55.683540     -157.354675      -52.032097
