20
 generated by VMD
 C         -50.320831     -129.560501      -43.427906
 N         -50.832420     -129.726608      -44.467209
 H         -49.167183     -127.782860      -40.914967
 H         -49.686958     -129.281113      -42.592304
 C         -48.132542     -128.155853      -41.062305
 C         -47.706451     -129.556061      -40.880085
 C         -46.993496     -127.199699      -40.757481
 C         -46.395763     -129.833893      -41.659885
 C         -45.692471     -127.595314      -41.441727
 C         -45.261993     -128.975739      -41.177452
 H         -48.362309     -130.405609      -41.130272
 H         -47.583080     -129.702103      -39.784504
 H         -47.123196     -126.133453      -41.068253
 H         -46.771313     -127.250420      -39.743725
 H         -46.581951     -130.023163      -42.778008
 H         -46.064587     -130.892227      -41.485054
 H         -44.736946     -127.036415      -41.224552
 H         -45.849369     -127.452248      -42.602188
 H         -44.329376     -129.161026      -41.772461
 H         -45.161472     -129.248871      -40.139633
