20
 generated by VMD
 C         -49.499481     -133.040100      -46.879864
 N         -48.465675     -132.915070      -47.450409
 H         -48.265549     -134.531540      -43.769875
 H         -50.333511     -133.267532      -46.236435
 C         -49.269848     -134.829849      -43.921200
 C         -49.548603     -136.267807      -44.336086
 C         -50.261990     -134.050934      -43.179779
 C         -50.154991     -137.025284      -43.134811
 C         -50.799179     -134.811676      -42.007778
 C         -51.287113     -136.219955      -42.446854
 H         -48.603729     -136.775604      -44.729309
 H         -50.290054     -136.272675      -45.168781
 H         -49.885933     -132.970367      -42.866505
 H         -51.073479     -133.893265      -43.893566
 H         -49.354908     -137.076935      -42.405945
 H         -50.390373     -138.017822      -43.611694
 H         -51.655109     -134.298401      -41.639782
 H         -50.032646     -134.856247      -41.276352
 H         -51.876968     -136.953690      -41.746159
 H         -52.066360     -136.169418      -43.145668
