20
 generated by VMD
 C         -50.022232     -131.605942      -46.684647
 N         -50.177895     -131.882950      -47.772419
 H         -48.555645     -131.578522      -43.990402
 H         -49.629917     -131.585312      -45.667629
 C         -48.917507     -132.226822      -43.144623
 C         -49.653091     -133.548630      -43.386688
 C         -48.755165     -131.863617      -41.712639
 C         -49.005157     -134.639328      -42.557762
 C         -48.069218     -132.973480      -40.989307
 C         -48.760986     -134.285538      -41.050247
 H         -49.605122     -133.667801      -44.464802
 H         -50.735100     -133.317703      -43.091125
 H         -48.274239     -130.918457      -41.717766
 H         -49.785885     -131.561676      -41.285301
 H         -48.083778     -134.863083      -43.116787
 H         -49.665039     -135.504181      -42.611828
 H         -47.855766     -132.642822      -39.897270
 H         -47.055916     -133.189102      -41.412468
 H         -48.386719     -135.155075      -40.556522
 H         -49.759491     -134.105682      -40.652885
