20
 generated by VMD
 C         -69.043289     -187.123871      -67.799904
 N         -67.931770     -187.432556      -67.584045
 H         -68.228874     -186.965439      -64.153297
 H         -70.047432     -186.881485      -68.161972
 C         -69.078133     -187.461563      -63.666718
 C         -68.958427     -187.905701      -62.127708
 C         -70.401711     -186.900406      -64.072411
 C         -70.222244     -188.576874      -61.660561
 C         -71.585663     -187.927444      -63.667366
 C         -71.607231     -188.193985      -62.223316
 H         -68.745979     -187.017212      -61.463467
 H         -68.051926     -188.542419      -62.045788
 H         -70.620819     -185.880249      -63.844147
 H         -70.470139     -186.787888      -65.203651
 H         -70.287415     -188.530396      -60.588512
 H         -70.227898     -189.617737      -61.978306
 H         -71.476227     -188.853790      -64.226822
 H         -72.435638     -187.386642      -64.018105
 H         -71.866409     -187.317780      -61.571640
 H         -72.374611     -188.971817      -62.103344
