20
 generated by VMD
 C         -38.581238      -98.842781      -27.570724
 N         -37.970860      -99.436882      -26.791058
 H         -37.329746      -97.743874      -30.390284
 H         -39.314728      -98.218269      -28.186308
 C         -36.331398      -97.276291      -30.641726
 C         -35.496716      -97.881477      -31.770926
 C         -35.533539      -96.577728      -29.490681
 C         -34.463245      -96.772942      -32.172085
 C         -34.286503      -95.809502      -30.004623
 C         -33.459789      -96.565079      -31.109970
 H         -36.154289      -98.199928      -32.559696
 H         -34.990101      -98.773109      -31.450333
 H         -36.181561      -95.881973      -28.982002
 H         -35.172958      -97.347771      -28.817963
 H         -34.967697      -95.744003      -32.418846
 H         -33.993191      -97.163513      -33.093658
 H         -33.600086      -95.723061      -29.209057
 H         -34.627174      -94.836182      -30.383471
 H         -32.629543      -96.015938      -31.685503
 H         -33.007355      -97.369919      -30.617491
