20
 generated by VMD
 C         -45.641399     -123.580017      -35.511818
 N         -46.203278     -124.609627      -35.386070
 H         -44.976654     -122.279579      -38.248764
 H         -45.001713     -122.646126      -35.404991
 C         -44.711426     -121.637787      -39.068321
 C         -43.394085     -121.388351      -39.630974
 C         -45.774258     -120.664780      -39.470547
 C         -43.415165     -121.150047      -41.187916
 C         -45.859673     -120.504295      -41.032852
 C         -44.444038     -120.163330      -41.609959
 H         -42.802376     -122.203659      -39.328304
 H         -43.204090     -120.356598      -39.130772
 H         -46.822643     -121.051193      -39.246143
 H         -45.639015     -119.694862      -38.878345
 H         -43.837158     -122.085709      -41.616970
 H         -42.460491     -120.790802      -41.497608
 H         -46.501961     -119.779182      -41.242565
 H         -46.281612     -121.377335      -41.469002
 H         -44.449051     -119.988258      -42.715019
 H         -44.164223     -119.132835      -41.249920
