20
 generated by VMD
 C         -58.659397     -159.028107      -57.477150
 N         -59.140598     -158.208252      -58.058971
 H         -59.478298     -159.673004      -54.541283
 H         -58.154545     -159.783340      -56.930855
 C         -59.636707     -160.299088      -53.715706
 C         -58.512623     -160.441635      -52.636654
 C         -60.561466     -161.427383      -53.857624
 C         -58.973152     -160.922424      -51.235176
 C         -61.205048     -161.693451      -52.450050
 C         -60.138630     -161.971542      -51.346104
 H         -57.831017     -159.581329      -52.548649
 H         -57.891647     -161.124863      -53.184143
 H         -61.484386     -161.215683      -54.552330
 H         -60.031822     -162.321655      -54.214169
 H         -59.543472     -159.983414      -50.767220
 H         -58.208214     -161.336670      -50.622417
 H         -61.986504     -162.479675      -52.478565
 H         -61.763718     -160.780411      -52.165276
 H         -60.691692     -161.759857      -50.407021
 H         -59.645443     -162.913452      -51.570805
