20
 generated by VMD
 C         -79.140862     -207.890762      -75.264320
 N         -78.510490     -207.159103      -75.974854
 H         -78.793610     -210.332825      -73.507675
 H         -79.742584     -208.497940      -74.671623
 C         -78.543114     -209.993286      -72.480957
 C         -77.236656     -209.154846      -72.279388
 C         -78.640900     -211.058731      -71.396248
 C         -76.992737     -208.660110      -70.937233
 C         -78.423592     -210.625626      -69.927757
 C         -77.114586     -209.892059      -69.960503
 H         -77.118950     -208.395233      -73.074135
 H         -76.312889     -209.756699      -72.564331
 H         -79.618088     -211.531113      -71.547195
 H         -77.829903     -211.827805      -71.607826
 H         -77.652679     -207.789566      -70.599510
 H         -75.962708     -208.207443      -70.937653
 H         -78.486664     -211.512039      -69.182106
 H         -79.235184     -209.996216      -69.656303
 H         -76.998184     -209.483627      -68.966904
 H         -76.281181     -210.619370      -70.003777
