20
 generated by VMD
 C         -45.518173     -123.496071      -35.423271
 N         -46.104588     -124.485878      -35.369968
 H         -45.145477     -122.496346      -38.994652
 H         -45.164200     -122.461029      -35.595856
 C         -44.711384     -121.558136      -39.112545
 C         -43.351856     -121.402000      -39.617130
 C         -45.868122     -120.646111      -39.459896
 C         -43.343075     -121.045921      -41.126110
 C         -45.900593     -120.446342      -41.003788
 C         -44.440090     -120.059921      -41.519806
 H         -42.798508     -122.372231      -39.348923
 H         -42.887100     -120.707611      -38.989010
 H         -46.849083     -120.965210      -39.148121
 H         -45.773884     -119.776901      -38.906658
 H         -43.655930     -121.915176      -41.729294
 H         -42.314098     -120.792915      -41.503220
 H         -46.795792     -119.598862      -41.167831
 H         -46.271324     -121.341911      -41.599888
 H         -44.496387     -120.140800      -42.569870
 H         -44.121857     -119.067764      -41.167423
