20
 generated by VMD
 C         -70.560211     -181.289124      -64.016304
 N         -70.695000     -182.235809      -63.405212
 H         -68.249603     -181.412750      -61.138596
 H         -70.447319     -180.372925      -64.519966
 C         -67.338753     -180.841934      -60.852478
 C         -66.154381     -181.543076      -60.374458
 C         -67.344688     -179.442520      -60.539913
 C         -64.796974     -180.908020      -60.783520
 C         -66.005203     -178.696838      -60.781803
 C         -64.765556     -179.456573      -60.317272
 H         -66.121750     -182.535355      -60.925121
 H         -66.235573     -181.607880      -59.220997
 H         -68.082008     -178.869904      -61.139053
 H         -67.634216     -179.330292      -59.410755
 H         -64.574585     -180.779999      -61.897137
 H         -63.897579     -181.543884      -60.510914
 H         -65.959221     -177.729202      -60.251579
 H         -65.941460     -178.479050      -61.844105
 H         -63.976101     -178.968719      -60.841068
 H         -64.604897     -179.245148      -59.275620
