20
 generated by VMD
 C         -60.844883     -156.283020      -54.766293
 N         -60.190548     -155.505920      -55.415699
 H         -59.731564     -156.937714      -51.547512
 H         -61.505863     -156.815186      -54.081070
 C         -58.723843     -156.873291      -51.885574
 C         -57.962337     -155.599579      -51.775444
 C         -57.899246     -158.091980      -52.158199
 C         -56.840981     -155.567184      -50.818027
 C         -56.814037     -158.108932      -51.041496
 C         -55.947811     -156.773666      -51.025360
 H         -58.748711     -154.792542      -51.432930
 H         -57.686619     -155.371185      -52.832680
 H         -58.548622     -158.964523      -52.062016
 H         -57.376419     -157.990631      -53.051884
 H         -57.209747     -155.585052      -49.775776
 H         -56.193409     -154.654144      -51.002636
 H         -56.027931     -158.960266      -51.089359
 H         -57.328667     -158.153885      -50.098652
 H         -55.197224     -156.818665      -50.200287
 H         -55.466114     -156.668777      -52.001083
