20
 generated by VMD
 C         -40.541264     -118.897911      -35.557537
 N         -39.602558     -118.442795      -35.021030
 H         -43.703579     -117.215309      -36.032425
 H         -41.513210     -119.079277      -36.086609
 C         -44.067986     -117.071053      -37.069485
 C         -43.002224     -117.476929      -38.061745
 C         -45.206490     -116.242126      -37.571827
 C         -43.658318     -118.237747      -39.155861
 C         -45.945766     -117.108002      -38.579865
 C         -44.942501     -117.600998      -39.613930
 H         -42.307339     -118.158028      -37.547573
 H         -42.321159     -116.726654      -38.516361
 H         -45.925652     -115.901978      -36.793930
 H         -44.779491     -115.372673      -37.994072
 H         -43.792976     -119.274261      -38.894958
 H         -42.912727     -118.371002      -40.030457
 H         -46.778530     -116.651207      -39.118122
 H         -46.319305     -118.032379      -38.187218
 H         -45.431400     -118.204605      -40.345478
 H         -44.764111     -116.684204      -40.202614
