20
 generated by VMD
 C         -51.876434     -146.142517      -43.960640
 N         -51.614609     -146.431595      -45.011219
 H         -53.908791     -145.699768      -47.131401
 H         -52.250469     -145.881927      -42.960464
 C         -53.936802     -144.797791      -47.681408
 C         -52.832417     -144.675858      -48.815662
 C         -54.853512     -143.703827      -47.499992
 C         -53.480465     -144.148376      -50.166489
 C         -55.364174     -143.157349      -48.808506
 C         -54.261215     -142.839767      -49.819889
 H         -52.477566     -145.645752      -49.085224
 H         -51.933567     -144.006744      -48.673485
 H         -55.677525     -144.070999      -46.909729
 H         -54.310268     -142.941757      -46.952011
 H         -54.170223     -144.868332      -50.470879
 H         -52.709633     -143.857346      -50.854214
 H         -55.960468     -142.306854      -48.527195
 H         -55.948792     -143.829178      -49.340210
 H         -54.552227     -142.223541      -50.752247
 H         -53.469353     -142.270874      -49.347610
