20
 generated by VMD
 C         -47.942818     -134.202698      -47.604946
 N         -48.053234     -133.434662      -48.518578
 H         -49.696102     -134.172302      -44.166019
 H         -47.527763     -134.594666      -46.669765
 C         -50.210979     -135.014694      -43.720325
 C         -50.349331     -136.259735      -44.633465
 C         -51.089695     -134.841888      -42.501144
 C         -50.593594     -137.478836      -43.784889
 C         -51.394714     -136.119598      -41.822922
 C         -51.712784     -137.283768      -42.828587
 H         -49.328568     -136.241486      -45.114220
 H         -51.042160     -135.985611      -45.389721
 H         -50.648113     -134.062195      -41.826740
 H         -52.061035     -134.353867      -42.919125
 H         -49.601139     -137.794586      -43.381912
 H         -50.957005     -138.272934      -44.412849
 H         -52.298531     -135.948746      -41.254662
 H         -50.613937     -136.507812      -41.276794
 H         -51.827347     -138.201721      -42.347591
 H         -52.735664     -137.385406      -43.308556
