20
 generated by VMD
 C         -13.644528      -43.967842       -6.763771
 N         -13.607189      -43.884064       -5.638891
 H         -14.830873      -44.849697       -9.135457
 H         -14.418844      -43.781113      -10.512633
 C         -15.238997      -44.394855      -10.021707
 C         -16.361238      -43.487381       -9.664478
 C         -15.640752      -45.556293      -10.938439
 C         -16.957232      -42.923313      -10.958862
 C         -16.024179      -44.976566      -12.284988
 C         -17.143612      -43.945644      -12.129662
 H         -15.989617      -42.725609       -8.986647
 H         -17.125212      -43.995857       -9.091170
 H         -14.817394      -46.277645      -11.117131
 H         -16.512794      -46.085938      -10.531457
 H         -16.351891      -42.098553      -11.358565
 H         -17.926334      -42.469841      -10.759292
 H         -16.315145      -45.799622      -12.883010
 H         -15.182502      -44.451729      -12.808458
 H         -17.337988      -43.316128      -13.047804
 H         -18.093538      -44.530148      -11.892231
