20
 generated by VMD
 C         -20.012741      -51.875450      -10.124463
 N         -20.909367      -51.269543       -9.761745
 H         -17.775896      -49.004608      -10.344155
 H         -19.041574      -52.605957      -10.087891
 C         -17.481472      -49.157894      -11.356093
 C         -16.505211      -50.247211      -11.704762
 C         -17.237026      -47.901001      -12.168891
 C         -16.655611      -50.729553      -13.146913
 C         -17.233871      -48.254925      -13.668334
 C         -16.424646      -49.506737      -14.029092
 H         -16.660799      -51.081406      -11.076570
 H         -15.493151      -49.851116      -11.505053
 H         -18.150887      -47.248737      -12.049785
 H         -16.365530      -47.358330      -11.760381
 H         -17.660406      -51.048946      -13.193137
 H         -15.983757      -51.517651      -13.459967
 H         -16.758730      -47.370358      -14.160874
 H         -18.201387      -48.446590      -14.031919
 H         -16.466091      -49.791550      -15.078499
 H         -15.400876      -49.223732      -13.884222
