20
 generated by VMD
 C         -51.876190     -129.975922      -45.220322
 N         -51.759659     -129.548874      -46.329414
 H         -48.609413     -130.108932      -43.176983
 H         -52.394791     -130.379669      -44.375378
 C         -47.891796     -130.121490      -42.396568
 C         -47.859676     -131.464569      -41.811211
 C         -47.282543     -128.982773      -41.664330
 C         -46.570522     -131.737823      -40.999096
 C         -46.096798     -129.332932      -40.839180
 C         -46.154549     -130.647385      -39.982788
 H         -48.094078     -132.161560      -42.631020
 H         -48.729290     -131.608109      -41.048813
 H         -47.008957     -128.216904      -42.476269
 H         -48.118511     -128.658371      -41.103287
 H         -45.891598     -131.999191      -41.818714
 H         -46.550900     -132.771835      -40.634201
 H         -45.741364     -128.565552      -40.099266
 H         -45.225780     -129.533829      -41.597511
 H         -45.144409     -130.879425      -39.676392
 H         -46.916027     -130.671524      -39.162548
