20
 generated by VMD
 C         -74.770752     -201.678375      -66.111671
 N         -73.851997     -201.006393      -65.919533
 H         -76.088058     -199.105209      -68.279991
 H         -75.461952     -202.367310      -66.463524
 C         -75.207420     -198.634995      -68.740547
 C         -74.998840     -197.164398      -68.202156
 C         -74.532478     -199.039154      -70.025742
 C         -73.510429     -196.844452      -68.104599
 C         -73.172462     -198.337006      -70.187447
 C         -72.673164     -197.970078      -68.738541
 H         -75.527512     -197.061554      -67.212776
 H         -75.502945     -196.441315      -68.954468
 H         -74.376335     -200.093460      -70.161674
 H         -75.182396     -198.833420      -70.844193
 H         -73.339699     -196.568756      -67.045456
 H         -73.173668     -195.901276      -68.640015
 H         -73.335594     -197.393646      -70.685547
 H         -72.532547     -199.063004      -70.739662
 H         -72.737930     -198.761932      -68.059555
 H         -71.568459     -197.563980      -68.745438
