20
 generated by VMD
 C         -15.115494      -46.188217       -6.194332
 N         -14.746131      -47.213898       -5.944981
 H         -15.714889      -44.792248       -9.385113
 H         -14.676619      -44.962513      -10.870455
 C         -15.681922      -44.883228      -10.476308
 C         -16.419613      -43.725567      -11.040725
 C         -16.379616      -46.244797      -10.829243
 C         -16.621952      -43.937290      -12.535851
 C         -16.532047      -46.455299      -12.334490
 C         -17.267376      -45.261276      -12.923158
 H         -15.889727      -42.788933      -10.908231
 H         -17.433119      -43.587341      -10.628257
 H         -15.728830      -46.980225      -10.284589
 H         -17.402428      -46.264530      -10.414433
 H         -15.657269      -43.793133      -13.017128
 H         -17.277721      -43.116821      -12.857708
 H         -17.146973      -47.363846      -12.480532
 H         -15.603154      -46.595154      -12.834505
 H         -17.425159      -45.475521      -13.985297
 H         -18.293839      -45.212360      -12.599932
