20
 generated by VMD
 C         -50.718208     -129.558838      -45.811699
 N         -51.033703     -130.594574      -45.286331
 H         -48.524120     -130.992905      -44.009392
 H         -50.339802     -128.716858      -46.449417
 C         -48.128834     -131.124405      -43.015671
 C         -48.349022     -132.524628      -42.322563
 C         -47.926418     -129.881271      -42.243088
 C         -47.305561     -132.604477      -41.221207
 C         -46.955559     -130.161560      -41.184563
 C         -47.255337     -131.334106      -40.369019
 H         -48.242981     -133.330811      -43.053806
 H         -49.445454     -132.566666      -42.057724
 H         -47.494499     -129.106140      -42.926037
 H         -48.886166     -129.538437      -41.782646
 H         -46.308933     -132.810272      -41.618397
 H         -47.557140     -133.528259      -40.718365
 H         -46.948860     -129.308014      -40.508350
 H         -45.961567     -130.349792      -41.548187
 H         -46.547440     -131.629303      -39.641079
 H         -48.157490     -131.230255      -39.715340
