20
 generated by VMD
 C          -1.607956       -9.362454       -0.075681
 N          -2.577293       -9.008652        0.332812
 H          -2.475954      -10.652379        2.421607
 H          -2.156667      -11.727632        3.777871
 C          -2.823897      -11.526975        2.970128
 C          -2.684408      -12.791043        2.095788
 C          -4.222754      -11.294565        3.339573
 C          -3.324083      -14.049664        2.690318
 C          -4.910448      -12.573212        4.018186
 C          -4.776467      -13.718656        3.044102
 H          -1.621529      -12.995198        1.845246
 H          -3.192381      -12.603309        1.125931
 H          -4.357898      -10.492120        4.110255
 H          -4.933092      -10.950269        2.522931
 H          -2.805797      -14.443678        3.612122
 H          -3.321701      -14.860864        1.949336
 H          -5.943011      -12.402516        4.285721
 H          -4.394923      -12.774647        4.941098
 H          -5.327071      -14.586791        3.448460
 H          -5.309740      -13.500879        2.131684
