20
 generated by VMD
 C         -18.379919      -48.824562       -7.142964
 N         -19.084743      -49.674393       -7.245047
 H         -16.131611      -47.584347      -10.095273
 H         -16.197639      -49.005108      -11.210314
 C         -16.251720      -47.921562      -11.139089
 C         -15.157804      -47.351456      -12.040103
 C         -17.661339      -47.413342      -11.541207
 C         -15.442860      -47.760983      -13.512725
 C         -17.855408      -47.480827      -13.070129
 C         -16.715422      -47.185200      -14.010355
 H         -14.214190      -47.652901      -11.624292
 H         -15.230493      -46.250778      -12.067302
 H         -18.454983      -47.959362      -11.008222
 H         -17.748785      -46.368473      -11.237057
 H         -15.475263      -48.862015      -13.623900
 H         -14.620477      -47.511688      -14.202308
 H         -18.677044      -46.787670      -13.340363
 H         -18.212044      -48.471474      -13.264411
 H         -16.997816      -47.589985      -14.982767
 H         -16.572992      -46.110981      -14.138597
