20
 generated by VMD
 C         -63.607914     -174.723312      -56.239265
 N         -62.626141     -175.292923      -56.376965
 H         -66.388680     -173.259781      -58.260334
 H         -64.547325     -174.182602      -56.120598
 C         -65.556114     -172.604736      -58.676361
 C         -65.739372     -171.056671      -58.473213
 C         -64.565155     -173.081467      -59.792862
 C         -64.320824     -170.595612      -58.105392
 C         -63.304924     -172.249039      -59.692287
 C         -63.464188     -170.852753      -59.231277
 H         -66.563248     -170.819595      -57.873848
 H         -65.986855     -170.593979      -59.540211
 H         -64.322418     -174.173203      -59.852844
 H         -64.982971     -173.063660      -60.785393
 H         -64.007942     -171.049942      -57.173615
 H         -64.363876     -169.526581      -58.002781
 H         -62.909813     -172.207169      -60.728977
 H         -62.642643     -172.805222      -58.980331
 H         -62.457363     -170.579086      -58.962860
 H         -63.710587     -170.269791      -60.175201
