20
 generated by VMD
 C         -10.429633      -33.054329       -8.960955
 N         -11.103479      -33.875992       -9.357324
 H         -13.079167      -33.984077       -6.278249
 H         -13.076741      -34.839138       -4.660856
 C         -13.063781      -34.966778       -5.767178
 C         -11.687715      -35.597622       -6.014245
 C         -14.317054      -35.714329       -6.119905
 C         -11.663368      -37.080173       -5.534299
 C         -14.119607      -37.222214       -5.831959
 C         -12.755022      -37.840794       -6.163158
 H         -10.848474      -35.029827       -5.482901
 H         -11.455732      -35.596840       -7.093941
 H         -15.238320      -35.417088       -5.572635
 H         -14.464810      -35.618591       -7.185473
 H         -11.796355      -37.004890       -4.404041
 H         -10.676221      -37.476391       -5.784719
 H         -14.838764      -37.748672       -6.442933
 H         -14.352051      -37.436615       -4.713111
 H         -12.837012      -38.879425       -5.819300
 H         -12.616565      -37.845093       -7.210664
