20
 generated by VMD
 C         -49.288235     -141.196106      -45.728683
 N         -48.606358     -141.519333      -44.873142
 H         -51.659077     -138.306320      -46.124619
 H         -50.037361     -141.064514      -46.485996
 C         -52.121880     -139.253769      -46.307339
 C         -52.744110     -139.416565      -47.702732
 C         -52.877251     -139.943588      -45.166637
 C         -53.283360     -140.858353      -48.024143
 C         -53.330120     -141.395813      -45.602642
 C         -54.081234     -141.302704      -46.846386
 H         -51.932095     -139.239944      -48.428764
 H         -53.519386     -138.606979      -47.845287
 H         -52.365803     -139.917068      -44.194626
 H         -53.769566     -139.383499      -44.973042
 H         -52.521030     -141.523331      -48.393608
 H         -54.004803     -140.793610      -48.854237
 H         -53.830341     -141.844345      -44.706459
 H         -52.529022     -142.147049      -45.656822
 H         -54.603424     -142.303421      -47.107559
 H         -54.990528     -140.566406      -46.618900
