20
 generated by VMD
 C         -39.716068      -99.274170      -28.439241
 N         -38.951717     -100.024323      -27.944395
 H         -37.502277      -98.505226      -30.760147
 H         -40.511375      -98.731873      -28.948656
 C         -36.369297      -98.267067      -30.730902
 C         -35.760342      -98.630638      -32.114933
 C         -35.492508      -97.823708      -29.506243
 C         -34.540131      -97.701004      -32.370743
 C         -34.367817      -96.898048      -29.960995
 C         -33.652916      -97.626198      -31.188747
 H         -36.603649      -98.513367      -32.866230
 H         -35.598507      -99.654686      -32.034805
 H         -36.057968      -97.274452      -28.706573
 H         -35.141399      -98.729431      -29.072693
 H         -34.874908      -96.735664      -32.677517
 H         -33.964008      -98.032585      -33.309982
 H         -33.532368      -97.023026      -29.229761
 H         -34.529221      -95.836594      -30.108940
 H         -32.748535      -97.116966      -31.361826
 H         -33.281738      -98.708099      -30.995817
