20
 generated by VMD
 C         -49.967995     -142.924667      -45.551735
 N         -48.896385     -143.107468      -45.252048
 H         -52.088524     -139.645737      -45.489883
 H         -50.997620     -142.587769      -45.696804
 C         -52.592159     -140.343140      -46.210613
 C         -52.187016     -140.503342      -47.717590
 C         -54.064610     -140.415344      -45.945988
 C         -52.752850     -141.922348      -48.135750
 C         -54.695259     -141.669968      -46.480137
 C         -54.241665     -142.034317      -47.915627
 H         -51.072205     -140.543152      -47.911518
 H         -52.688389     -139.837051      -48.423977
 H         -54.186260     -140.269943      -44.892784
 H         -54.495628     -139.562897      -46.306778
 H         -52.079041     -142.715530      -47.539013
 H         -52.625546     -142.085800      -49.281963
 H         -55.854843     -141.632568      -46.386852
 H         -54.407906     -142.607407      -45.913940
 H         -54.587818     -143.120453      -48.165607
 H         -54.787647     -141.220749      -48.559105
