20
 generated by VMD
 C         -65.199852     -176.045715      -55.850357
 N         -65.077576     -177.174835      -55.689186
 H         -65.018600     -174.538742      -59.444649
 H         -65.267509     -175.007370      -56.071514
 C         -64.500137     -173.646454      -59.305489
 C         -65.262062     -172.699249      -58.528698
 C         -63.810013     -173.180771      -60.525677
 C         -64.560463     -171.233734      -58.560215
 C         -63.056107     -171.906586      -60.437725
 C         -64.059212     -170.864349      -60.001770
 H         -65.456184     -172.989838      -57.436447
 H         -66.200470     -172.448990      -59.051525
 H         -63.146572     -174.078415      -60.710129
 H         -64.589455     -173.266800      -61.369118
 H         -63.738789     -171.236053      -57.901817
 H         -65.194557     -170.472214      -58.166630
 H         -62.775677     -171.614044      -61.506737
 H         -62.189541     -172.035522      -59.789520
 H         -63.661312     -169.822495      -60.095032
 H         -64.898399     -170.930450      -60.703217
