20
 generated by VMD
 C         -22.762558      -52.410736      -12.032951
 N         -23.470942      -52.465389      -11.171779
 H         -20.076752      -53.349873      -14.179572
 H         -22.373528      -52.515110      -13.117788
 C         -18.977982      -53.103119      -13.915354
 C         -18.204594      -52.083366      -14.732337
 C         -18.159309      -54.149914      -13.204249
 C         -16.661087      -52.235474      -14.469687
 C         -16.993052      -53.497612      -12.358800
 C         -16.192806      -52.450146      -13.026463
 H         -18.383183      -51.068340      -14.380053
 H         -18.501974      -52.207588      -15.741314
 H         -18.835552      -54.700394      -12.550743
 H         -17.714155      -54.877033      -13.933173
 H         -16.076128      -51.397694      -14.916985
 H         -16.497705      -53.134338      -15.103074
 H         -16.391647      -54.284389      -11.962707
 H         -17.419842      -52.922523      -11.482572
 H         -16.424454      -51.567539      -12.466579
 H         -15.140676      -52.736095      -12.976676
