20
 generated by VMD
 C         -59.304855     -168.313187      -55.363895
 N         -58.414738     -168.899857      -54.796928
 H         -62.428276     -169.367950      -55.967552
 H         -60.068806     -167.884491      -56.022205
 C         -62.613262     -168.381805      -56.388233
 C         -62.748409     -168.369232      -57.849171
 C         -62.844658     -167.182724      -55.568626
 C         -64.023201     -167.602112      -58.368366
 C         -64.155327     -166.398346      -55.948734
 C         -64.107780     -166.246414      -57.616356
 H         -62.735435     -169.524094      -58.086658
 H         -61.916367     -167.935547      -58.169384
 H         -62.821953     -167.336777      -54.509686
 H         -62.021599     -166.463181      -55.711403
 H         -64.917694     -168.279205      -58.319019
 H         -63.729626     -167.481659      -59.416546
 H         -64.224625     -165.341278      -55.717247
 H         -65.040894     -167.092087      -55.661400
 H         -65.053207     -165.720810      -57.864292
 H         -63.292694     -165.516174      -57.952881
