20
 generated by VMD
 C         -50.247993     -130.367432      -46.061096
 N         -50.888390     -130.074814      -45.195438
 H         -48.075943     -131.990036      -44.444168
 H         -49.471054     -130.548615      -46.777790
 C         -48.055939     -132.075089      -43.348728
 C         -48.415276     -133.308319      -42.666065
 C         -48.219917     -130.737457      -42.808037
 C         -47.815434     -133.304504      -41.318619
 C         -47.674923     -130.781357      -41.362610
 C         -48.182220     -132.024490      -40.530979
 H         -47.895092     -134.228027      -43.136642
 H         -49.492794     -133.448502      -42.688831
 H         -47.656986     -129.957779      -43.473011
 H         -49.322063     -130.565323      -42.900566
 H         -46.723755     -133.283890      -41.302319
 H         -48.124039     -134.129227      -40.705097
 H         -47.916370     -129.782013      -40.918491
 H         -46.519615     -130.882538      -41.367630
 H         -47.784145     -132.092361      -39.487900
 H         -49.249107     -131.902451      -40.393269
