20
 generated by VMD
 C         -49.426456     -141.510864      -45.821552
 N         -49.178219     -141.873718      -44.763828
 H         -51.653900     -138.464798      -46.220020
 H         -49.700493     -141.269684      -46.826393
 C         -52.205318     -139.352814      -46.448635
 C         -52.928326     -139.469986      -47.725601
 C         -52.863480     -140.019333      -45.241386
 C         -53.143097     -140.877563      -48.077614
 C         -53.261353     -141.410370      -45.616722
 C         -53.902149     -141.631073      -47.012497
 H         -52.375130     -139.052185      -48.533443
 H         -53.813931     -138.837067      -47.580200
 H         -52.084469     -140.189056      -44.485157
 H         -53.706463     -139.478653      -44.782967
 H         -52.023754     -141.184952      -48.322624
 H         -53.748188     -140.991089      -49.021111
 H         -53.947063     -141.686218      -44.815250
 H         -52.357613     -142.070480      -45.714779
 H         -53.937229     -142.659439      -47.252163
 H         -54.906174     -141.261490      -47.097466
