20
 generated by VMD
 C         -40.199524     -101.072464      -32.119213
 N         -41.086517     -100.756096      -31.404053
 H         -37.708397     -103.721466      -32.360542
 H         -39.503323     -101.328812      -32.903366
 C         -37.398197     -102.803482      -31.934919
 C         -36.038845     -102.412689      -32.836540
 C         -37.398243     -102.397453      -30.532787
 C         -35.237774     -101.145348      -32.497017
 C         -36.477009     -101.099144      -30.216990
 C         -35.129257     -101.002365      -30.916302
 H         -36.275360     -102.550980      -33.909580
 H         -35.332649     -103.266388      -32.636208
 H         -38.327335     -102.268250      -29.993872
 H         -36.916122     -103.217232      -30.045549
 H         -35.849915     -100.233475      -32.887901
 H         -34.257744     -101.184044      -33.114819
 H         -36.303955     -101.033218      -29.136091
 H         -37.077042     -100.169128      -30.455057
 H         -34.684483     -100.040321      -30.640644
 H         -34.379890     -101.760696      -30.475658
