20
 generated by VMD
 C          -1.769171      -16.541027        2.440705
 N          -2.003407      -15.460045        2.575264
 H          -4.174047      -15.958769       -0.008755
 H          -4.634848      -17.034153       -1.226393
 C          -5.015271      -16.575363       -0.351844
 C          -6.255312      -15.824636       -0.755014
 C          -5.275558      -17.713232        0.609391
 C          -7.462044      -16.752394       -1.156815
 C          -6.498138      -18.578238        0.358910
 C          -7.736282      -17.716997       -0.014943
 H          -6.058474      -15.121421       -1.543690
 H          -6.579412      -15.270329        0.160215
 H          -4.306607      -18.349857        0.823739
 H          -5.532712      -17.184326        1.618684
 H          -7.222793      -17.325821       -2.036368
 H          -8.311852      -16.056431       -1.318829
 H          -6.744250      -19.132879        1.257417
 H          -6.410371      -19.305672       -0.487517
 H          -8.527108      -18.418810       -0.336768
 H          -8.057463      -17.298000        0.926926
