20
 generated by VMD
 C         -22.707251      -52.332592      -11.763099
 N         -22.514534      -52.626694      -10.711069
 H         -20.012503      -51.997204      -13.701372
 H         -22.595312      -51.888718      -12.822860
 C         -18.967272      -52.456322      -13.871840
 C         -17.934769      -51.770645      -14.779209
 C         -18.352205      -53.220181      -12.789825
 C         -16.499172      -52.341801      -14.528260
 C         -17.189735      -52.450642      -12.158014
 C         -16.051527      -52.084553      -13.137567
 H         -17.894253      -50.756733      -14.537941
 H         -18.215204      -51.784107      -15.854511
 H         -19.129278      -53.504707      -12.017864
 H         -17.981165      -54.174629      -13.164836
 H         -15.900727      -51.906601      -15.326921
 H         -16.560648      -53.417980      -14.751978
 H         -16.693602      -53.095352      -11.514617
 H         -17.569658      -51.647007      -11.524628
 H         -15.902404      -51.030434      -12.973076
 H         -15.114200      -52.599155      -12.992630
