20
 generated by VMD
 C         -43.307510     -121.158089      -35.935726
 N         -43.517235     -120.515610      -34.973282
 H         -44.739597     -122.318802      -39.173206
 H         -43.320850     -121.707115      -36.883091
 C         -44.706539     -121.262970      -39.397564
 C         -43.393997     -120.667221      -39.714642
 C         -45.806522     -120.389046      -38.895504
 C         -43.480381     -119.213760      -40.253475
 C         -45.778511     -118.930000      -39.378319
 C         -44.440395     -118.336624      -39.501255
 H         -42.789318     -121.297974      -40.332756
 H         -42.761078     -120.708038      -38.752617
 H         -46.788574     -120.727783      -39.075321
 H         -45.682129     -120.280006      -37.823612
 H         -43.822880     -119.384087      -41.301926
 H         -42.556332     -118.701134      -40.252438
 H         -46.238049     -118.277260      -38.701641
 H         -46.354626     -118.941513      -40.320957
 H         -44.488354     -117.260643      -39.831421
 H         -43.877022     -118.213470      -38.468395
