20
 generated by VMD
 C         -30.749395      -75.618858      -23.257736
 N         -30.912731      -75.905495      -24.400936
 H         -29.309250      -78.734047      -21.743731
 H         -30.933023      -75.235405      -22.327097
 C         -28.338148      -78.295082      -21.745094
 C         -27.552011      -78.268074      -23.013828
 C         -27.880871      -77.820992      -20.451157
 C         -26.613739      -77.079567      -23.144653
 C         -26.754427      -76.702080      -20.593262
 C         -25.834311      -76.784958      -21.803385
 H         -28.110895      -78.454475      -23.905882
 H         -26.911678      -79.238312      -23.069605
 H         -28.737530      -77.455711      -19.858622
 H         -27.465353      -78.788361      -19.930466
 H         -27.227470      -76.147125      -23.254271
 H         -26.051098      -77.122887      -24.064840
 H         -26.402102      -76.491661      -19.568876
 H         -27.263157      -75.816162      -20.776711
 H         -25.342585      -75.779144      -21.949278
 H         -25.174711      -77.663239      -21.696556
