20
 generated by VMD
 C         -28.195665      -83.718704      -27.297779
 N         -27.417149      -83.436172      -26.521027
 H         -31.634558      -84.275566      -26.335993
 H         -28.930193      -84.063805      -28.098454
 C         -31.563932      -85.170372      -25.786947
 C         -31.502625      -85.270927      -24.280235
 C         -32.095600      -86.442329      -26.484240
 C         -32.787922      -85.896263      -23.716530
 C         -33.241207      -87.084435      -25.747744
 C         -33.059460      -87.236855      -24.276735
 H         -31.230930      -84.383278      -23.629652
 H         -30.616821      -85.873878      -24.035330
 H         -32.395218      -86.167770      -27.475788
 H         -31.247633      -87.178795      -26.631918
 H         -33.543159      -85.097961      -23.895042
 H         -32.710949      -86.080193      -22.718294
 H         -33.541473      -88.065422      -26.011524
 H         -34.204453      -86.454781      -25.871227
 H         -34.013485      -87.602066      -23.780025
 H         -32.337765      -88.052757      -24.065775
