20
 generated by VMD
 C         -21.243002      -52.050133      -10.243619
 N         -21.446342      -53.107128      -10.697997
 H         -19.758509      -50.325977      -13.011981
 H         -21.013178      -51.122059      -10.052199
 C         -18.707165      -50.435490      -12.937958
 C         -18.231956      -51.759136      -13.446054
 C         -17.749416      -49.613422      -12.205383
 C         -16.896896      -51.674961      -14.179386
 C         -16.365107      -49.704086      -12.859294
 C         -15.793144      -51.058933      -13.358305
 H         -18.975311      -52.122353      -14.121058
 H         -18.082920      -52.463978      -12.587546
 H         -17.984678      -48.542213      -12.193031
 H         -17.645298      -49.810020      -11.141711
 H         -17.038153      -51.073170      -15.131617
 H         -16.546572      -52.628979      -14.634370
 H         -15.687257      -49.171879      -12.201302
 H         -16.384409      -49.068676      -13.802604
 H         -14.899940      -50.920425      -14.031656
 H         -15.510054      -51.784836      -12.515591
