20
 generated by VMD
 C         -49.530022     -133.111954      -46.852905
 N         -48.505577     -132.848984      -47.408176
 H         -48.188835     -134.686951      -43.634640
 H         -50.397591     -132.937042      -46.255867
 C         -49.206638     -134.880676      -43.910801
 C         -49.582024     -136.212997      -44.320335
 C         -50.261059     -134.022522      -43.212154
 C         -50.098114     -136.951370      -43.092075
 C         -50.777958     -134.770966      -42.031612
 C         -51.269745     -136.230942      -42.508530
 H         -48.607990     -136.679138      -44.568474
 H         -50.195148     -136.191010      -45.278465
 H         -49.799953     -133.007401      -43.006714
 H         -51.103779     -133.853867      -43.869759
 H         -49.383923     -137.312927      -42.372059
 H         -50.574203     -137.953827      -43.405315
 H         -51.630280     -134.339172      -41.530548
 H         -50.032551     -134.888519      -41.277138
 H         -51.692886     -136.643616      -41.499805
 H         -51.969837     -136.058960      -43.279354
