20
 generated by VMD
 C         -65.548332     -177.638351      -56.655876
 N         -66.125801     -176.714172      -56.259857
 H         -64.720314     -175.345612      -59.283352
 H         -64.979485     -178.492233      -57.087090
 C         -64.536591     -174.318954      -59.437115
 C         -65.411934     -173.377838      -58.721241
 C         -63.496826     -173.964050      -60.425911
 C         -65.026672     -171.847809      -58.818230
 C         -63.100254     -172.465408      -60.466503
 C         -64.335129     -171.558014      -60.158943
 H         -65.602005     -173.635590      -57.606857
 H         -66.341171     -173.392700      -59.216305
 H         -62.661785     -174.719696      -60.142193
 H         -63.862892     -174.300415      -61.462925
 H         -64.333839     -171.634033      -57.953903
 H         -65.974648     -171.241913      -58.639278
 H         -62.707764     -172.186218      -61.418865
 H         -62.341908     -172.254364      -59.669754
 H         -64.027679     -170.543549      -60.164871
 H         -64.981766     -171.798416      -61.058048
