20
 generated by VMD
 C         -29.970058      -79.306526      -25.933214
 N         -30.898848      -78.624161      -26.034153
 H         -29.107996      -82.634865      -25.640291
 H         -29.137638      -79.882545      -25.675497
 C         -28.936951      -82.927116      -24.653358
 C         -28.316668      -81.945351      -23.734575
 C         -29.867458      -83.974327      -24.100449
 C         -29.285358      -81.275078      -22.776623
 C         -30.997562      -83.244766      -23.242907
 C         -30.274998      -82.323166      -22.122921
 H         -27.827879      -81.201912      -24.382998
 H         -27.525774      -82.391838      -23.012693
 H         -30.283524      -84.543480      -24.861643
 H         -29.288025      -84.669678      -23.488840
 H         -29.966230      -80.474739      -23.231228
 H         -28.597372      -80.666039      -22.057283
 H         -31.572241      -84.010963      -22.892513
 H         -31.698727      -82.652328      -23.857067
 H         -30.996002      -81.965851      -21.479973
 H         -29.620390      -82.898476      -21.536924
