20
 generated by VMD
 C         -40.604561     -106.555573      -37.269077
 N         -39.575188     -106.714912      -37.809875
 H         -38.506775     -108.125504      -34.320103
 H         -41.486259     -106.580376      -36.602158
 C         -39.118725     -108.936401      -34.026184
 C         -38.569294     -109.844528      -33.059925
 C         -40.609631     -108.780548      -34.477043
 C         -39.605576     -110.369133      -32.099846
 C         -41.556953     -109.214836      -33.343426
 C         -40.999916     -110.551147      -32.646358
 H         -37.635052     -109.345955      -32.699177
 H         -38.247650     -110.613106      -33.785034
 H         -40.745914     -107.734177      -34.771206
 H         -40.758289     -109.416748      -35.284893
 H         -39.731792     -109.668770      -31.314978
 H         -39.243847     -111.257599      -31.629210
 H         -42.527451     -109.375717      -33.759510
 H         -41.524498     -108.455582      -32.570843
 H         -41.665657     -110.853073      -31.821520
 H         -41.047512     -111.421509      -33.414280
