20
 generated by VMD
 C         -32.381275      -92.946037      -25.911896
 N         -32.513550      -94.020798      -25.589273
 H         -33.652592      -94.860115      -28.834459
 H         -32.053322      -91.904533      -26.189743
 C         -34.156021      -93.906456      -28.939302
 C         -35.339550      -93.400253      -28.125854
 C         -33.716312      -93.126869      -30.159523
 C         -35.254158      -91.894402      -27.971962
 C         -33.571384      -91.680992      -29.675386
 C         -34.881596      -91.099762      -29.188854
 H         -35.389626      -93.851402      -27.150877
 H         -36.179943      -93.684998      -28.776321
 H         -32.690338      -93.514038      -30.349749
 H         -34.267109      -93.200539      -31.093939
 H         -34.479362      -91.718391      -27.238890
 H         -36.175068      -91.611862      -27.432158
 H         -33.123962      -91.022385      -30.388824
 H         -32.862354      -91.730659      -28.774345
 H         -35.048569      -90.051758      -28.992981
 H         -35.580246      -91.196190      -30.043329
