20
 generated by VMD
 C         -27.227249      -72.817612      -17.955774
 N         -27.971346      -73.348885      -17.215063
 H         -24.879217      -70.617203      -18.596182
 H         -26.308561      -72.473312      -18.548733
 C         -25.037449      -70.705734      -19.682392
 C         -24.500055      -71.887711      -20.262991
 C         -25.490408      -69.657585      -20.710201
 C         -25.253876      -72.377205      -21.394779
 C         -26.532608      -70.227386      -21.783232
 C         -25.922169      -71.437019      -22.400532
 H         -24.386147      -72.702232      -19.521402
 H         -23.464323      -71.690018      -20.572626
 H         -26.050888      -68.840210      -20.274387
 H         -24.555605      -69.201248      -21.146938
 H         -25.965914      -73.142097      -21.045965
 H         -24.605331      -72.874458      -22.092512
 H         -26.656639      -69.381546      -22.497959
 H         -27.425613      -70.466721      -21.140221
 H         -26.649265      -71.976082      -23.034496
 H         -25.238226      -71.125198      -23.170223
