20
 generated by VMD
 C         -41.882778     -101.498436      -32.836597
 N         -41.365059     -101.589767      -33.897831
 H         -38.677021     -103.725281      -32.661613
 H         -42.307598     -101.068565      -31.996433
 C         -37.833195     -103.351891      -32.103485
 C         -36.653168     -103.151352      -33.068523
 C         -37.578274     -103.667099      -30.640850
 C         -35.417599     -102.509644      -32.366997
 C         -36.432198     -102.874153      -30.058218
 C         -35.172348     -103.030869      -30.952339
 H         -36.939240     -102.637711      -34.028145
 H         -36.345989     -104.173813      -33.382229
 H         -38.589405     -103.334839      -30.166315
 H         -37.507851     -104.710777      -30.434937
 H         -35.545559     -101.409386      -32.439945
 H         -34.619446     -102.794693      -33.028351
 H         -36.094734     -103.178314      -29.111412
 H         -36.813187     -101.809158      -29.982826
 H         -34.288685     -102.523651      -30.585100
 H         -34.842716     -104.117851      -31.103985
