20
 generated by VMD
 C          -2.547362      -16.924595        2.821771
 N          -2.362511      -16.617365        1.762100
 H          -4.373712      -16.011934        0.143654
 H          -4.495006      -17.181236       -1.156228
 C          -5.042672      -16.711863       -0.296452
 C          -6.336135      -16.031406       -0.831576
 C          -5.472243      -17.656439        0.782735
 C          -7.205734      -17.101812       -1.490222
 C          -6.529156      -18.667067        0.420672
 C          -7.622618      -18.126806       -0.402062
 H          -6.146813      -15.251614       -1.620939
 H          -6.783731      -15.508053       -0.017251
 H          -4.699879      -18.281940        1.205176
 H          -5.837880      -17.148006        1.729908
 H          -6.644034      -17.685417       -2.286982
 H          -8.095122      -16.649426       -1.900376
 H          -6.915823      -19.035755        1.414844
 H          -6.018715      -19.509275       -0.041202
 H          -8.182564      -18.902117       -0.894930
 H          -8.289381      -17.572378        0.280783
