20
 generated by VMD
 C         -49.258125     -133.032822      -47.009735
 N         -48.358315     -133.057632      -47.647266
 H         -48.731457     -134.207108      -44.536770
 H         -50.066929     -133.149185      -46.314171
 C         -49.368359     -134.855408      -43.968525
 C         -49.652294     -136.265198      -44.336056
 C         -50.393646     -134.128387      -43.071598
 C         -50.228172     -137.156174      -43.190075
 C         -50.914986     -135.033676      -41.952248
 C         -51.362576     -136.382385      -42.457382
 H         -48.689312     -136.627319      -44.779263
 H         -50.339417     -136.175369      -45.152203
 H         -49.799603     -133.177719      -42.679512
 H         -51.199295     -133.740677      -43.707947
 H         -49.367725     -137.212448      -42.522228
 H         -50.502270     -138.174515      -43.643471
 H         -51.834591     -134.698593      -41.597851
 H         -50.275177     -135.156036      -41.089397
 H         -51.727188     -137.088654      -41.583561
 H         -52.300331     -136.406967      -42.966724
