20
 generated by VMD
 C         -40.698719     -100.230553      -30.193817
 N         -40.937923     -100.370834      -29.052425
 H         -37.409817     -100.036636      -30.810440
 H         -40.499725      -99.837379      -31.144730
 C         -36.409885      -99.901634      -30.775089
 C         -35.995914      -99.830818      -32.261356
 C         -35.332474      -99.984749      -29.738554
 C         -35.091759      -98.551468      -32.534912
 C         -34.392960      -98.775871      -30.037739
 C         -33.890610      -98.721230      -31.500046
 H         -36.934727      -99.975067      -32.887257
 H         -35.318882     -100.655952      -32.451347
 H         -35.758564      -99.949005      -28.667105
 H         -34.790264     -100.907181      -29.888113
 H         -35.690189      -97.652229      -32.267551
 H         -34.883312      -98.558990      -33.664845
 H         -33.523350      -98.868134      -29.293505
 H         -34.954838      -97.874428      -29.894203
 H         -33.178917      -97.974304      -31.690966
 H         -33.313042      -99.643982      -31.749512
