20
 generated by VMD
 C         -49.360611     -132.378494      -46.606197
 N         -50.338844     -131.983673      -47.226223
 H         -47.541458     -134.057495      -44.275139
 H         -48.458084     -132.393448      -45.928421
 C         -48.344017     -134.443985      -43.618565
 C         -49.083965     -135.796600      -43.887764
 C         -49.199291     -133.355103      -43.058643
 C         -49.879311     -136.215408      -42.680153
 C         -50.025795     -133.824463      -41.891994
 C         -50.820606     -135.161972      -42.098366
 H         -48.365952     -136.626556      -44.134094
 H         -49.708225     -135.686493      -44.719273
 H         -48.633610     -132.423080      -42.742382
 H         -49.820656     -133.046204      -43.868515
 H         -49.266365     -136.423172      -41.814163
 H         -50.511581     -137.055435      -42.738571
 H         -50.759369     -133.039307      -41.724258
 H         -49.317459     -133.813293      -40.966602
 H         -51.152851     -135.468872      -41.011646
 H         -51.628021     -134.858612      -42.731983
