20
 generated by VMD
 C         -20.634735      -64.431870      -16.814312
 N         -19.615303      -64.033958      -16.508633
 H         -24.098379      -63.415455      -17.527643
 H         -21.774990      -64.521828      -17.057230
 C         -24.392876      -64.367355      -17.801489
 C         -24.561197      -64.563675      -19.308958
 C         -24.591793      -65.304291      -16.790668
 C         -24.847284      -65.982803      -19.724281
 C         -24.625010      -66.719383      -17.196476
 C         -25.377903      -66.839554      -18.546041
 H         -23.641680      -64.311913      -19.867819
 H         -25.375948      -63.869682      -19.513887
 H         -23.755161      -65.246681      -15.969270
 H         -25.467852      -65.042641      -16.180126
 H         -23.867395      -66.453743      -20.089149
 H         -25.649481      -66.037338      -20.551546
 H         -24.941591      -67.330597      -16.345165
 H         -23.559397      -66.991135      -17.418871
 H         -25.534124      -67.864044      -18.871723
 H         -26.406246      -66.394966      -18.370527
