20
 generated by VMD
 C         -38.045235     -114.567848      -35.398220
 N         -38.878887     -115.204269      -34.903061
 H         -41.626358     -115.563034      -36.489334
 H         -37.215313     -113.942291      -35.705067
 C         -42.551441     -115.219154      -36.927654
 C         -42.847645     -115.184456      -38.398708
 C         -43.522419     -115.000801      -35.867882
 C         -44.140457     -115.884567      -38.593941
 C         -44.714710     -115.911156      -36.148430
 C         -45.172993     -115.556801      -37.561893
 H         -41.915070     -115.475075      -38.927917
 H         -43.010647     -114.131721      -38.732914
 H         -43.059586     -115.251503      -34.825096
 H         -43.918346     -113.935493      -36.016979
 H         -43.907387     -116.994087      -38.602882
 H         -44.446747     -115.691956      -39.576199
 H         -45.665646     -115.666252      -35.602291
 H         -44.431076     -116.995323      -36.104694
 H         -46.051067     -116.138863      -37.646633
 H         -45.660721     -114.434875      -37.644859
