20
 generated by VMD
 C         -60.943268     -155.084000      -53.047581
 N         -60.968006     -154.283005      -52.212368
 H         -57.929104     -154.318024      -52.696785
 H         -60.833313     -155.873367      -53.807995
 C         -57.084763     -154.186905      -52.014259
 C         -57.468250     -154.096039      -50.483837
 C         -55.769493     -153.778656      -52.611206
 C         -56.164234     -154.581177      -49.599545
 C         -54.751030     -154.131790      -51.592705
 C         -55.012886     -153.808334      -50.072182
 H         -58.316113     -154.796463      -50.281303
 H         -57.623878     -153.075958      -50.153336
 H         -55.588654     -154.249878      -53.595425
 H         -55.789894     -152.680557      -52.750763
 H         -55.892620     -155.599045      -49.683403
 H         -56.501434     -154.468292      -48.553131
 H         -53.798389     -153.668228      -51.943470
 H         -54.522659     -155.182053      -51.681232
 H         -54.071468     -154.248398      -49.553150
 H         -55.301044     -152.820435      -49.865345
