20
 generated by VMD
 C         -49.936710     -143.215958      -44.677322
 N         -49.169823     -143.408539      -45.469170
 H         -52.034306     -140.642197      -45.570427
 H         -50.818893     -143.121887      -44.044022
 C         -52.653542     -141.178101      -46.291775
 C         -52.080921     -141.446167      -47.746338
 C         -54.178642     -140.958862      -46.041458
 C         -53.040981     -142.194580      -48.607941
 C         -54.996159     -141.875916      -47.046352
 C         -54.482117     -141.670776      -48.475330
 H         -51.137459     -141.984161      -47.588753
 H         -51.820293     -140.362793      -48.084656
 H         -54.437744     -141.239563      -44.995735
 H         -54.585369     -139.882462      -46.177002
 H         -52.993832     -143.291077      -48.213619
 H         -52.873322     -142.236282      -49.722977
 H         -55.976147     -141.498154      -46.793922
 H         -55.019119     -142.980331      -46.858456
 H         -55.102146     -142.292404      -49.182915
 H         -54.418922     -140.574356      -48.717007
