20
 generated by VMD
 C         -50.720863     -129.564926      -45.800453
 N         -51.024181     -130.580643      -45.293861
 H         -48.416180     -130.901840      -43.978233
 H         -50.397820     -128.824707      -46.508026
 C         -48.131611     -131.139954      -43.016579
 C         -48.342678     -132.544998      -42.320034
 C         -47.943443     -129.873779      -42.252167
 C         -47.315910     -132.623795      -41.226318
 C         -46.944035     -130.167130      -41.184063
 C         -47.282539     -131.320953      -40.380409
 H         -48.208538     -133.336853      -42.960823
 H         -49.450256     -132.575668      -42.061771
 H         -47.500172     -129.076294      -42.886475
 H         -48.826782     -129.579117      -41.871323
 H         -46.295040     -132.764511      -41.641697
 H         -47.578815     -133.544067      -40.665508
 H         -46.970516     -129.401093      -40.502831
 H         -45.923660     -130.352036      -41.574211
 H         -46.568146     -131.664642      -39.639595
 H         -48.117855     -131.282501      -39.697174
