20
 generated by VMD
 C         -72.600143     -198.723175      -65.647438
 N         -73.628532     -199.113449      -66.028229
 H         -70.930679     -196.441132      -67.456627
 H         -71.802780     -198.449432      -65.017418
 C         -71.912651     -196.111420      -67.763016
 C         -72.874069     -195.159271      -67.063255
 C         -72.455742     -196.776093      -69.029808
 C         -74.308571     -195.122910      -67.638306
 C         -73.892113     -197.286636      -68.953506
 C         -74.889297     -196.550110      -68.007812
 H         -72.365929     -194.195938      -67.000214
 H         -73.064850     -195.559235      -66.072067
 H         -72.496964     -195.954498      -69.725723
 H         -71.870056     -197.662186      -69.349777
 H         -74.481247     -194.464737      -68.526863
 H         -75.045639     -194.707764      -66.958374
 H         -73.996094     -198.363297      -68.831589
 H         -74.152504     -197.214172      -70.047852
 H         -75.929131     -196.383850      -68.522697
 H         -75.177406     -197.051926      -67.155731
