20
 generated by VMD
 C         -50.022636     -144.201797      -44.314175
 N         -49.284588     -143.772690      -45.133915
 H         -52.069782     -141.850388      -45.832413
 H         -50.747566     -144.782196      -43.696545
 C         -52.900467     -141.985519      -46.542450
 C         -52.278900     -142.004974      -47.875683
 C         -54.359982     -141.406219      -46.369961
 C         -53.202229     -142.438675      -49.009697
 C         -55.260769     -141.981979      -47.478928
 C         -54.621017     -141.732086      -48.920364
 H         -51.406139     -142.689255      -47.927666
 H         -51.990967     -140.918915      -47.934368
 H         -54.625107     -141.835190      -45.373657
 H         -54.369442     -140.336716      -46.392269
 H         -53.213150     -143.448624      -48.914936
 H         -52.830097     -142.249344      -49.975391
 H         -56.219090     -141.497650      -47.383320
 H         -55.568298     -143.042053      -47.402573
 H         -55.272587     -142.126038      -49.647591
 H         -54.507111     -140.714706      -49.163006
