20
 generated by VMD
 C         -22.253571      -55.102146      -17.280453
 N         -22.806934      -55.015430      -18.343365
 H         -20.986977      -56.210205      -14.476796
 H         -21.963415      -55.238232      -16.128778
 C         -20.592234      -57.201546      -14.268867
 C         -20.839767      -57.960842      -12.856823
 C         -19.550974      -57.796642      -15.218695
 C         -20.889296      -59.500713      -13.119700
 C         -19.675823      -59.397961      -15.268584
 C         -19.689838      -60.087273      -13.933084
 H         -21.812065      -57.696442      -12.376882
 H         -20.157131      -57.724766      -11.994457
 H         -19.601070      -57.274681      -16.216450
 H         -18.584352      -57.638298      -14.854860
 H         -21.794390      -59.681236      -13.703395
 H         -21.048416      -59.996906      -12.171904
 H         -18.910027      -59.865196      -15.910594
 H         -20.610691      -59.613224      -15.771184
 H         -19.721268      -61.177151      -14.159189
 H         -18.711679      -59.898449      -13.432548
