20
 generated by VMD
 C         -29.821632      -79.323685      -26.145988
 N         -30.773764      -78.669075      -25.933762
 H         -28.744444      -82.962563      -25.780602
 H         -29.110769      -79.846466      -26.668304
 C         -29.004456      -83.050652      -24.744984
 C         -28.386747      -82.057739      -23.706478
 C         -29.901493      -84.047424      -24.109632
 C         -29.582027      -81.435043      -22.791908
 C         -30.975927      -83.495163      -23.217066
 C         -30.460194      -82.455948      -22.274036
 H         -27.744295      -81.283890      -24.213184
 H         -27.655094      -82.579582      -22.981920
 H         -30.347729      -84.692421      -24.777435
 H         -29.197014      -84.670738      -23.540802
 H         -30.160591      -80.674309      -23.375641
 H         -28.890892      -80.931755      -22.085005
 H         -31.442892      -84.259743      -22.687784
 H         -31.725843      -82.932640      -23.796072
 H         -31.348936      -81.989738      -21.900171
 H         -30.043365      -82.916000      -21.436319
