20
 generated by VMD
 C          -2.605719      -16.755367        2.804221
 N          -1.934552      -17.056767        1.962645
 H          -4.636857      -16.006710        0.411808
 H          -4.600569      -17.414185       -0.736101
 C          -5.241950      -16.843479       -0.075881
 C          -6.263414      -16.193151       -1.077490
 C          -5.834472      -17.856205        0.864529
 C          -7.261045      -17.254206       -1.635694
 C          -6.638253      -18.859238        0.069942
 C          -7.809621      -18.187948       -0.548414
 H          -5.733164      -15.712941       -1.875000
 H          -6.767929      -15.333943       -0.540827
 H          -5.059977      -18.325054        1.476492
 H          -6.423350      -17.407141        1.628063
 H          -6.849625      -17.898310       -2.423874
 H          -8.104672      -16.765135       -2.212111
 H          -6.957386      -19.586786        0.798354
 H          -6.006741      -19.445238       -0.599250
 H          -8.389706      -18.957819       -1.099269
 H          -8.469426      -17.688545        0.163182
