20
 generated by VMD
 C         -50.519394     -145.078217      -45.132114
 N         -50.492462     -145.535126      -44.108528
 H         -52.906715     -143.433014      -46.020538
 H         -50.474701     -144.583725      -46.051159
 C         -53.504700     -143.307190      -46.927849
 C         -52.569473     -143.242294      -48.149132
 C         -54.752968     -142.441315      -47.009304
 C         -53.433987     -143.386459      -49.465332
 C         -55.380852     -142.505630      -48.389763
 C         -54.467117     -142.346420      -49.515903
 H         -51.899067     -144.157700      -48.069443
 H         -51.871048     -142.373016      -47.915264
 H         -55.535400     -142.768875      -46.310497
 H         -54.489021     -141.445831      -46.786293
 H         -53.721924     -144.507523      -49.533798
 H         -52.680141     -143.138763      -50.237354
 H         -56.113400     -141.658585      -48.448589
 H         -55.932232     -143.426773      -48.333549
 H         -55.070992     -142.473907      -50.479134
 H         -54.190975     -141.265396      -49.547901
