20
 generated by VMD
 C         -11.753869      -41.411259       -6.516190
 N         -11.075888      -42.281940       -6.428745
 H         -14.700192      -42.216599       -8.174900
 H         -15.186848      -41.169643       -9.462337
 C         -15.300090      -42.224152       -9.173297
 C         -16.771717      -42.368031       -8.855393
 C         -14.702514      -43.166176      -10.235392
 C         -17.590591      -42.503876      -10.108504
 C         -15.588435      -43.168148      -11.472426
 C         -17.006845      -43.571892      -11.038087
 H         -17.087036      -41.431721       -8.334812
 H         -16.956388      -43.248436       -8.186549
 H         -13.660437      -42.788902      -10.538159
 H         -14.696231      -44.208469       -9.804873
 H         -17.498842      -41.489723      -10.565287
 H         -18.620132      -42.801807       -9.813157
 H         -15.217072      -43.777428      -12.227442
 H         -15.627030      -42.132755      -11.952406
 H         -17.556452      -43.779781      -11.938070
 H         -17.045349      -44.534470      -10.518133
