20
 generated by VMD
 C         -43.158237     -120.852295      -35.438057
 N         -42.708054     -120.881882      -34.347343
 H         -44.345589     -121.396614      -38.762352
 H         -43.542786     -120.691681      -36.419266
 C         -44.087868     -120.372200      -38.660912
 C         -43.179188     -119.694427      -39.572037
 C         -45.121559     -119.468651      -38.209736
 C         -43.798073     -118.900024      -40.674141
 C         -45.931595     -118.762062      -39.324253
 C         -44.988083     -118.020386      -40.289864
 H         -42.430756     -120.371185      -39.884300
 H         -42.778721     -118.874878      -39.066711
 H         -45.841385     -119.913185      -37.593136
 H         -44.825974     -118.678757      -37.560253
 H         -44.154331     -119.706123      -41.439930
 H         -43.014751     -118.345947      -41.304375
 H         -46.610130     -118.006378      -38.954308
 H         -46.419029     -119.452087      -40.058178
 H         -45.483879     -117.742874      -41.240017
 H         -44.548321     -117.189270      -39.758659
