20
 generated by VMD
 C          -5.457407      -21.245129        1.609319
 N          -5.557489      -20.935797        2.685119
 H          -5.102610      -18.638561       -0.760758
 H          -5.629404      -20.354233       -0.008221
 C          -5.800849      -19.463938       -0.961289
 C          -5.544692      -20.056999       -2.351546
 C          -7.134765      -18.741745       -0.981131
 C          -6.578697      -21.090744       -2.656816
 C          -8.258249      -19.739500       -1.120906
 C          -8.037459      -20.561035       -2.429575
 H          -4.552448      -20.446785       -2.331943
 H          -5.626745      -19.183771       -3.119990
 H          -7.278269      -18.240822       -0.040837
 H          -7.195944      -18.165836       -1.908017
 H          -6.563480      -21.936235       -1.961515
 H          -6.404978      -21.500799       -3.683713
 H          -9.240696      -19.223192       -1.168859
 H          -8.255967      -20.378141       -0.218495
 H          -8.649783      -21.495955       -2.403636
 H          -8.360144      -19.884378       -3.263873
