20
 generated by VMD
 C         -12.778221      -28.540339       -5.857840
 N         -13.069242      -28.669121       -6.930175
 H         -12.166014      -31.090721       -4.918246
 H         -10.918362      -29.794945       -5.002065
 C         -11.074148      -30.895712       -4.726845
 C         -10.138724      -31.765579       -5.581262
 C         -10.802996      -31.114061       -3.273023
 C          -8.622783      -31.444502       -5.233392
 C          -9.409000      -30.644093       -2.917519
 C          -8.441654      -31.561956       -3.642840
 H         -10.214617      -31.633724       -6.599469
 H         -10.377782      -32.870781       -5.353535
 H         -11.565236      -30.599821       -2.689574
 H         -10.893274      -32.132809       -2.993832
 H          -8.387384      -30.418690       -5.561402
 H          -7.982684      -32.058647       -5.844394
 H          -9.355068      -30.744045       -1.834834
 H          -9.215310      -29.600574       -3.221567
 H          -7.398219      -31.209299       -3.321209
 H          -8.507093      -32.589207       -3.230627
