20
 generated by VMD
 C         -25.335531      -71.118988      -17.033585
 N         -25.308380      -71.004684      -15.876502
 H         -23.735313      -68.553169      -18.865023
 H         -25.196064      -71.140999      -18.176092
 C         -24.575657      -69.055939      -19.414921
 C         -23.898849      -69.810486      -20.551779
 C         -25.840683      -68.227287      -19.756983
 C         -24.813251      -70.660599      -21.304937
 C         -26.829168      -69.217766      -20.558475
 C         -26.139952      -69.967903      -21.793295
 H         -23.032919      -70.321533      -20.007891
 H         -23.319605      -69.038666      -21.231199
 H         -26.303650      -67.783844      -18.810751
 H         -25.565704      -67.403282      -20.435869
 H         -24.965878      -71.649010      -20.813450
 H         -24.272234      -70.973312      -22.211164
 H         -27.701561      -68.732712      -21.038015
 H         -27.133993      -70.008942      -19.834673
 H         -26.766676      -70.797768      -22.070107
 H         -26.121891      -69.212097      -22.573332
