20
 generated by VMD
 C         -38.730968     -108.305725      -36.816360
 N         -37.772446     -108.855087      -37.220257
 H         -41.799526     -109.522461      -36.127060
 H         -39.555294     -107.857597      -36.309982
 C         -41.506119     -110.094246      -35.189388
 C         -40.703320     -111.288498      -35.520908
 C         -42.405323     -109.784706      -34.124790
 C         -40.350735     -112.010674      -34.165741
 C         -42.098961     -110.701401      -32.928139
 C         -41.620846     -112.189842      -33.364681
 H         -39.706062     -111.098618      -35.981018
 H         -41.324341     -111.991325      -36.098236
 H         -42.550423     -108.714859      -33.921196
 H         -43.376740     -110.072327      -34.446255
 H         -39.629860     -111.289246      -33.694557
 H         -39.806232     -112.976952      -34.421970
 H         -42.901913     -110.744156      -32.159962
 H         -41.343468     -110.253586      -32.350998
 H         -41.397434     -112.710342      -32.379921
 H         -42.466999     -112.891655      -33.768574
