20
 generated by VMD
 C         -38.700428     -113.680740      -35.709423
 N         -37.879829     -114.489563      -35.783951
 H         -41.357124     -114.775810      -35.686989
 H         -39.586338     -113.070122      -35.646408
 C         -42.250610     -114.417625      -36.203522
 C         -42.399338     -114.621742      -37.707832
 C         -43.526718     -114.213303      -35.358852
 C         -43.728348     -115.411629      -38.099606
 C         -44.498268     -115.338387      -35.799717
 C         -44.898769     -115.079437      -37.226864
 H         -41.453842     -115.201401      -38.011513
 H         -42.275356     -113.586723      -38.210018
 H         -43.262474     -114.495407      -34.293892
 H         -44.050423     -113.227310      -35.501884
 H         -43.373745     -116.487495      -38.004299
 H         -43.846699     -115.314270      -39.158546
 H         -45.462742     -115.454376      -35.204121
 H         -43.971268     -116.367767      -35.765598
 H         -45.845490     -115.694839      -37.286983
 H         -45.357574     -114.012543      -37.370834
