20
 generated by VMD
 C         -70.537445     -196.638535      -65.636116
 N         -69.451172     -196.698212      -66.009872
 H         -73.417946     -195.729309      -65.025429
 H         -71.551933     -196.722366      -65.273750
 C         -73.459312     -195.179749      -65.917580
 C         -72.892693     -193.777237      -65.948921
 C         -74.542404     -195.401794      -66.872223
 C         -72.422386     -193.337479      -67.340530
 C         -73.976013     -195.156433      -68.351089
 C         -73.535149     -193.691803      -68.363525
 H         -72.112221     -193.632294      -65.203499
 H         -73.636360     -193.163300      -65.613983
 H         -74.811920     -196.436691      -66.886559
 H         -75.471817     -194.826553      -66.752090
 H         -71.518372     -193.799484      -67.644310
 H         -72.206726     -192.274948      -67.377815
 H         -74.724327     -195.304413      -69.126442
 H         -73.148376     -195.851715      -68.603218
 H         -73.310425     -193.452606      -69.383873
 H         -74.584419     -193.200287      -68.158318
