20
 generated by VMD
 C         -17.787151      -48.367008       -6.882660
 N         -17.204634      -47.488773       -6.485063
 H         -16.362974      -48.577667      -10.590270
 H         -15.567085      -48.680794      -12.037366
 C         -16.264982      -48.029289      -11.510732
 C         -15.557480      -46.728550      -11.161283
 C         -17.645662      -47.985783      -12.202298
 C         -15.425809      -45.988731      -12.480441
 C         -17.566877      -47.110630      -13.472965
 C         -16.779419      -45.814171      -13.207045
 H         -14.575758      -47.084087      -10.800920
 H         -16.122927      -46.182304      -10.389653
 H         -18.000757      -49.036652      -12.360242
 H         -18.304380      -47.422276      -11.521312
 H         -14.735703      -46.485847      -13.177036
 H         -15.032166      -44.971535      -12.275517
 H         -18.529140      -46.857304      -13.905314
 H         -17.048500      -47.790417      -14.280471
 H         -16.595196      -45.342152      -14.179720
 H         -17.403194      -45.166485      -12.616654
