20
 generated by VMD
 C         -61.059841     -156.199524      -54.905613
 N         -60.271996     -155.647751      -55.495243
 H         -59.648006     -156.611130      -52.083488
 H         -61.826469     -156.776123      -54.479576
 C         -58.668076     -156.615829      -51.694553
 C         -57.980972     -155.299988      -51.513531
 C         -57.896858     -157.856155      -51.983078
 C         -56.679234     -155.529495      -50.575344
 C         -56.585388     -158.044983      -51.176857
 C         -55.783783     -156.681274      -51.106625
 H         -58.613937     -154.473587      -51.043819
 H         -57.631626     -154.945511      -52.486984
 H         -58.588345     -158.797852      -51.889408
 H         -57.590843     -157.908447      -53.026127
 H         -56.935047     -155.702011      -49.598007
 H         -55.930428     -154.744614      -50.564846
 H         -55.833107     -158.845352      -51.549561
 H         -56.947323     -158.381485      -50.183823
 H         -54.891891     -156.808548      -50.554459
 H         -55.364872     -156.325500      -52.145794
