20
 generated by VMD
 C         -65.253197     -176.264572      -55.931656
 N         -65.306252     -177.312958      -55.487499
 H         -64.212402     -174.550568      -59.080963
 H         -65.091454     -175.285950      -56.392467
 C         -64.487755     -173.643555      -59.500065
 C         -65.160530     -172.735764      -58.532936
 C         -63.755421     -173.314651      -60.670727
 C         -64.664413     -171.207794      -58.566753
 C         -63.126442     -171.953674      -60.482021
 C         -64.099350     -170.829239      -59.994732
 H         -65.142433     -173.284485      -57.639690
 H         -66.308228     -172.802765      -58.780491
 H         -62.863808     -173.999695      -60.655704
 H         -64.277977     -173.250336      -61.562511
 H         -63.771034     -171.081818      -57.905987
 H         -65.502403     -170.629913      -58.170341
 H         -62.579754     -171.643021      -61.440434
 H         -62.316830     -172.055176      -59.772686
 H         -63.547962     -169.870438      -60.084557
 H         -64.882240     -170.825409      -60.692585
