20
 generated by VMD
 C         -30.740307      -75.536613      -21.357954
 N         -31.800274      -75.224861      -21.000170
 H         -27.724703      -74.736084      -19.681053
 H         -29.692038      -75.652809      -21.247334
 C         -26.873573      -74.834679      -20.408642
 C         -26.552422      -75.994453      -21.338125
 C         -25.843601      -73.739120      -20.402180
 C         -26.026115      -75.598625      -22.695864
 C         -25.379129      -73.420753      -21.823677
 C         -24.898304      -74.583809      -22.576427
 H         -27.471302      -76.746010      -21.534563
 H         -25.932474      -76.727020      -20.819082
 H         -26.239431      -72.870178      -20.089903
 H         -25.066336      -74.164955      -19.772196
 H         -26.856571      -75.137032      -23.264002
 H         -25.694618      -76.457306      -23.306849
 H         -24.616648      -72.731247      -21.626326
 H         -26.108496      -72.845749      -22.337664
 H         -24.706450      -74.197845      -23.609486
 H         -24.008072      -74.927727      -22.015745
