20
 generated by VMD
 C         -28.077164      -87.788315      -26.729582
 N         -28.139706      -86.839066      -26.038149
 H         -31.211773      -88.952293      -25.866165
 H         -27.803751      -88.651894      -27.436234
 C         -32.238262      -88.798172      -26.141134
 C         -33.255100      -88.687675      -25.044180
 C         -32.604435      -88.788498      -27.551605
 C         -34.503139      -87.843292      -25.321682
 C         -33.648426      -87.641235      -27.736359
 C         -34.869205      -87.781113      -26.815655
 H         -32.754326      -88.526505      -24.081472
 H         -33.670654      -89.605972      -24.839663
 H         -31.808502      -88.643776      -28.364862
 H         -33.075684      -89.744766      -27.836269
 H         -34.304901      -86.832695      -25.064238
 H         -35.443096      -88.159271      -24.871351
 H         -33.855358      -87.717636      -28.748659
 H         -33.097637      -86.687683      -27.546824
 H         -35.560898      -86.959923      -27.142183
 H         -35.409893      -88.780693      -27.075991
