20
 generated by VMD
 C         -50.659164     -128.663620      -42.158165
 N         -51.726639     -128.292130      -41.829979
 H         -47.918098     -127.831207      -40.183823
 H         -49.659027     -128.893768      -42.511303
 C         -47.037754     -127.471733      -40.774067
 C         -45.718430     -128.152512      -40.205387
 C         -46.926865     -126.048538      -41.225079
 C         -44.469292     -127.730507      -40.887932
 C         -45.635288     -125.767128      -41.964382
 C         -44.473846     -126.203979      -41.065403
 H         -45.812038     -129.224380      -40.163277
 H         -45.650772     -127.705986      -39.166245
 H         -47.875797     -125.953835      -41.859791
 H         -47.017014     -125.334663      -40.443451
 H         -44.305840     -128.385193      -41.749954
 H         -43.597118     -127.998306      -40.214489
 H         -45.614586     -124.688965      -42.248260
 H         -45.655380     -126.264854      -42.951397
 H         -43.549820     -125.753876      -41.407593
 H         -44.656921     -125.583603      -40.174496
