20
 generated by VMD
 C         -63.070068     -174.875458      -54.833603
 N         -62.946041     -174.282806      -55.844296
 H         -64.159889     -173.286957      -57.741848
 H         -63.338486     -175.352463      -53.905170
 C         -64.237381     -172.354477      -58.349628
 C         -64.458763     -171.119141      -57.566471
 C         -64.367065     -172.289398      -59.823814
 C         -63.788795     -169.924942      -58.243462
 C         -63.945648     -170.972198      -60.443390
 C         -64.430763     -169.669754      -59.683842
 H         -64.072121     -171.390198      -56.548214
 H         -65.493698     -171.062119      -57.519569
 H         -63.778564     -173.171280      -60.193653
 H         -65.513184     -172.521057      -59.934998
 H         -62.779045     -170.050400      -58.396408
 H         -64.104652     -169.076523      -57.656448
 H         -64.201225     -170.970200      -61.491673
 H         -62.827923     -170.968826      -60.509861
 H         -64.066849     -168.748718      -60.042816
 H         -65.514915     -169.631592      -59.514225
