20
 generated by VMD
 C          -0.869097      -13.432551        0.845366
 N          -0.258744      -13.321743       -0.103840
 H          -4.513662      -13.334332        2.122886
 H          -5.635827      -13.464851        0.740196
 C          -5.261998      -14.051302        1.622008
 C          -6.446541      -14.532469        2.434737
 C          -4.395661      -15.205346        1.046254
 C          -7.288838      -15.652695        1.723210
 C          -5.200255      -16.325874        0.424584
 C          -6.361702      -16.799721        1.327280
 H          -7.158023      -13.695282        2.756737
 H          -6.005234      -15.023185        3.335590
 H          -3.649790      -14.824083        0.307864
 H          -3.899218      -15.656608        1.964517
 H          -7.859802      -15.243997        0.904253
 H          -7.981635      -16.065395        2.465637
 H          -4.551460      -17.187023        0.213025
 H          -5.663008      -15.969709       -0.491171
 H          -6.894793      -17.449905        0.621695
 H          -5.960537      -17.440170        2.154896
