20
 generated by VMD
 C         -62.571026     -174.374924      -54.877350
 N         -63.536179     -174.106003      -55.482441
 H         -62.375477     -172.447479      -58.355362
 H         -61.725956     -174.530457      -54.209610
 C         -63.236622     -171.748856      -58.430969
 C         -63.505634     -170.627090      -57.407848
 C         -64.240059     -172.090317      -59.598404
 C         -63.693394     -169.362335      -58.261921
 C         -64.601822     -170.735123      -60.257328
 C         -64.760559     -169.614349      -59.350243
 H         -62.720707     -170.511810      -56.734379
 H         -64.470581     -170.875320      -56.739601
 H         -63.800488     -172.793549      -60.435925
 H         -65.190773     -172.489792      -59.150303
 H         -62.767208     -169.003738      -58.653194
 H         -63.957073     -168.530914      -57.717152
 H         -65.559822     -170.904984      -60.815792
 H         -63.839855     -170.576950      -61.077591
 H         -64.849655     -168.665573      -59.934147
 H         -65.696770     -169.742218      -58.905148
