20
 generated by VMD
 C         -48.520382     -135.788269      -46.180870
 N         -47.723911     -136.133423      -45.441452
 H         -51.496967     -135.180145      -46.184929
 H         -49.100555     -135.519638      -47.027393
 C         -51.733662     -135.859192      -45.344543
 C         -52.466911     -137.142059      -45.591942
 C         -51.254131     -135.671890      -43.958530
 C         -51.603504     -138.333786      -45.183437
 C         -50.461731     -137.001480      -43.519642
 C         -51.229748     -138.276306      -43.669476
 H         -52.798767     -137.208664      -46.580711
 H         -53.405624     -136.983109      -44.961765
 H         -50.579628     -134.824768      -43.874153
 H         -52.145821     -135.542068      -43.350273
 H         -50.606476     -138.273849      -45.686977
 H         -52.107052     -139.258606      -45.445023
 H         -50.235203     -136.885178      -42.463985
 H         -49.440659     -137.032028      -44.043636
 H         -50.753983     -139.121964      -43.291283
 H         -52.020145     -138.340897      -42.955074
