20
 generated by VMD
 C         -65.772034     -177.660278      -56.864246
 N         -66.180702     -176.583542      -56.986530
 H         -64.802116     -175.664032      -59.354214
 H         -65.416870     -178.680588      -56.695721
 C         -64.641968     -174.636383      -59.396412
 C         -65.452293     -173.678589      -58.612335
 C         -63.527637     -174.239441      -60.280876
 C         -65.238892     -172.142471      -59.024132
 C         -63.181656     -172.847015      -60.247051
 C         -64.306671     -171.842468      -60.228050
 H         -65.035583     -173.848251      -57.686028
 H         -66.540108     -173.899811      -58.518780
 H         -62.669090     -174.800186      -59.909332
 H         -63.632092     -174.473877      -61.402786
 H         -64.744102     -171.616425      -58.181114
 H         -66.230705     -171.690887      -59.132980
 H         -62.509651     -172.612061      -61.119904
 H         -62.516602     -172.657761      -59.395138
 H         -63.958397     -170.791519      -60.432365
 H         -64.784760     -172.067368      -61.132118
