20
 generated by VMD
 C         -80.332535     -206.853714      -74.029869
 N         -80.540344     -206.596130      -75.125359
 H         -76.599487     -207.701172      -73.064575
 H         -79.933586     -207.219910      -73.039772
 C         -76.505882     -207.628693      -71.942787
 C         -75.375748     -206.728973      -71.439308
 C         -77.321167     -208.617157      -71.137138
 C         -75.498993     -206.619919      -69.904716
 C         -77.333443     -208.254425      -69.714607
 C         -75.947639     -207.881256      -69.136871
 H         -75.315384     -205.852783      -72.090584
 H         -74.348549     -207.179977      -71.624252
 H         -78.357117     -208.758911      -71.498970
 H         -76.876595     -209.669266      -71.279404
 H         -76.166512     -205.810654      -69.697464
 H         -74.505798     -206.293335      -69.560814
 H         -77.779907     -209.072067      -69.071991
 H         -78.122879     -207.450485      -69.706619
 H         -76.082954     -207.642517      -68.067703
 H         -75.150558     -208.522842      -69.113602
