20
 generated by VMD
 C         -49.048157     -126.975555      -38.893883
 N         -50.053425     -127.212807      -38.366299
 H         -46.911312     -125.188095      -39.665665
 H         -48.186405     -126.956108      -39.569733
 C         -46.054440     -124.547546      -40.111683
 C         -44.745197     -125.103767      -40.045937
 C         -46.198925     -123.148720      -40.488903
 C         -43.654568     -124.684807      -41.048492
 C         -45.192677     -122.600204      -41.560921
 C         -43.779076     -123.151505      -41.484776
 H         -44.815571     -126.213905      -40.017910
 H         -44.224865     -124.925346      -39.049068
 H         -47.269676     -122.938217      -40.762646
 H         -45.982273     -122.496155      -39.702358
 H         -43.637596     -125.387337      -41.949654
 H         -42.649330     -124.727249      -40.557907
 H         -45.055412     -121.569435      -41.581902
 H         -45.647194     -122.791931      -42.538422
 H         -43.292831     -123.054459      -42.418861
 H         -43.209988     -122.584084      -40.721004
