20
 generated by VMD
 C         -49.649498     -141.502548      -45.602592
 N         -49.630531     -142.493103      -44.933243
 H         -51.527168     -138.772629      -46.242756
 H         -49.641457     -140.659683      -46.271889
 C         -52.191010     -139.521912      -46.555744
 C         -52.793690     -139.682419      -47.869415
 C         -52.967091     -140.355301      -45.393902
 C         -52.966820     -141.143433      -48.211716
 C         -53.450809     -141.727844      -45.744152
 C         -53.993141     -141.735306      -47.165085
 H         -52.157398     -139.124573      -48.508446
 H         -53.779465     -139.193558      -47.985023
 H         -52.433331     -140.560455      -44.437996
 H         -53.981060     -139.835327      -45.258926
 H         -52.117046     -141.699097      -48.350975
 H         -53.348808     -141.159439      -49.170193
 H         -54.306412     -142.188950      -45.177105
 H         -52.587116     -142.463043      -45.529636
 H         -54.288353     -142.729767      -47.417725
 H         -54.900051     -141.170990      -47.261776
