20
 generated by VMD
 C         -46.220058     -124.171684      -35.830498
 N         -46.761036     -125.170570      -35.510040
 H         -44.624352     -122.229362      -38.302299
 H         -45.528439     -123.273277      -35.930031
 C         -44.625813     -121.579803      -39.127151
 C         -43.304546     -121.387794      -39.754395
 C         -45.638390     -120.692131      -39.547729
 C         -43.495262     -121.682976      -41.258942
 C         -45.923653     -120.914978      -41.043446
 C         -44.579597     -120.724030      -41.807514
 H         -42.528728     -122.056747      -39.271999
 H         -42.982365     -120.402191      -39.644810
 H         -46.564808     -120.941093      -38.982975
 H         -45.348984     -119.638313      -39.298431
 H         -43.576061     -122.686325      -41.547085
 H         -42.557137     -121.458046      -41.782871
 H         -46.643505     -120.268036      -41.398293
 H         -46.241081     -121.911911      -41.064590
 H         -44.762978     -120.979774      -42.853226
 H         -44.319954     -119.672134      -41.810654
