20
 generated by VMD
 C         -38.445633     -113.129227      -36.417728
 N         -37.313923     -113.042557      -36.232933
 H         -41.432381     -115.104950      -34.870430
 H         -39.431835     -112.909134      -36.712238
 C         -42.266499     -114.764191      -35.471226
 C         -42.118397     -114.543221      -36.941250
 C         -43.548008     -114.229424      -34.838619
 C         -43.399681     -115.129158      -37.718281
 C         -44.802456     -114.537743      -35.642948
 C         -44.567951     -114.281509      -37.172867
 H         -41.357037     -115.060768      -37.442787
 H         -42.152412     -113.531776      -37.350708
 H         -43.522659     -114.655090      -33.841583
 H         -43.370914     -113.116623      -34.832588
 H         -43.585522     -116.168716      -37.563332
 H         -43.308609     -114.990364      -38.806492
 H         -45.459877     -113.823540      -35.247486
 H         -45.177002     -115.501839      -35.562248
 H         -45.397213     -114.400230      -37.844299
 H         -44.436634     -113.212135      -37.270737
