20
 generated by VMD
 C         -49.380451     -141.460236      -45.850311
 N         -49.008232     -141.759720      -44.744884
 H         -51.578083     -138.399612      -46.264984
 H         -49.741486     -141.072464      -46.791256
 C         -52.228359     -139.241547      -46.434196
 C         -52.882751     -139.345734      -47.766327
 C         -52.790668     -140.069199      -45.252174
 C         -53.161560     -140.885208      -48.071510
 C         -53.332451     -141.463943      -45.499977
 C         -53.965141     -141.550919      -46.972519
 H         -52.345997     -138.804733      -48.520626
 H         -53.782120     -138.764297      -47.546356
 H         -52.061176     -140.126785      -44.460304
 H         -53.659214     -139.619995      -44.888363
 H         -52.102596     -141.488846      -48.037373
 H         -53.581745     -140.980667      -49.122154
 H         -54.145702     -141.618713      -44.792778
 H         -52.534966     -142.228775      -45.501709
 H         -54.090382     -142.585114      -47.289509
 H         -54.976460     -141.098663      -46.973816
