20
 generated by VMD
 C         -10.361278      -35.926506       -8.957708
 N         -10.146511      -34.864143       -8.810902
 H         -13.180820      -36.843853       -6.639133
 H         -14.323039      -37.714771       -5.634104
 C         -13.841894      -37.783314       -6.658752
 C         -12.986554      -39.106804       -6.620130
 C         -14.876506      -37.819660       -7.742521
 C         -13.924140      -40.350758       -6.602894
 C         -15.656365      -39.125805       -7.882422
 C         -14.763118      -40.406590       -7.874946
 H         -12.346535      -39.109276       -5.694154
 H         -12.232761      -39.154495       -7.484007
 H         -15.528522      -36.947510       -7.552032
 H         -14.424382      -37.500877       -8.697462
 H         -14.550096      -40.461891       -5.723278
 H         -13.291757      -41.293423       -6.528374
 H         -16.196854      -39.061375       -8.801541
 H         -16.409422      -39.163948       -7.081306
 H         -15.325823      -41.330841       -7.958676
 H         -14.064038      -40.313171       -8.727125
