20
 generated by VMD
 C         -22.596859      -52.280548      -11.737018
 N         -22.451366      -52.668938      -10.657588
 H         -19.956284      -52.081112      -14.077095
 H         -23.007803      -52.030750      -12.826610
 C         -18.866665      -52.332783      -13.883130
 C         -17.916443      -51.709522      -14.801874
 C         -18.356512      -53.169685      -12.704483
 C         -16.542280      -52.348022      -14.577407
 C         -17.183620      -52.386292      -12.100980
 C         -16.115992      -52.055347      -13.122499
 H         -17.865824      -50.622887      -14.696768
 H         -18.394272      -51.881962      -15.781584
 H         -19.163570      -53.313095      -11.988295
 H         -18.033419      -54.130192      -13.012958
 H         -15.827579      -51.897411      -15.305138
 H         -16.565655      -53.436859      -14.821130
 H         -16.801182      -52.722736      -11.144469
 H         -17.677893      -51.381344      -11.842842
 H         -15.702512      -51.026852      -13.054520
 H         -15.249226      -52.725506      -12.899285
