20
 generated by VMD
 C          -2.523876      -16.663799        2.744223
 N          -1.780727      -17.217897        2.123479
 H          -4.834266      -16.104139        0.510235
 H          -4.433795      -17.228470       -0.693006
 C          -5.294950      -16.898222       -0.088289
 C          -6.330621      -16.290741       -1.034886
 C          -5.908564      -17.950027        0.846367
 C          -7.254475      -17.260498       -1.777908
 C          -6.807157      -18.984777        0.119228
 C          -7.857572      -18.238998       -0.768602
 H          -5.798481      -15.726583       -1.823479
 H          -6.884149      -15.591107       -0.400769
 H          -5.040377      -18.486681        1.286142
 H          -6.512023      -17.357498        1.608662
 H          -6.707296      -17.828989       -2.551478
 H          -8.005618      -16.657915       -2.316772
 H          -7.313444      -19.588287        0.882600
 H          -6.221272      -19.659937       -0.562434
 H          -8.493184      -18.940004       -1.304994
 H          -8.558081      -17.753683       -0.084114
