20
 generated by VMD
 C         -60.214905     -156.233521      -54.653244
 N         -60.292271     -155.340256      -55.348404
 H         -59.770046     -157.299362      -51.464329
 H         -60.168270     -156.938263      -53.858646
 C         -58.851242     -157.234772      -52.105885
 C         -58.122196     -155.942902      -52.278954
 C         -57.965145     -158.462677      -52.016121
 C         -57.167576     -155.705429      -51.120564
 C         -56.943966     -158.294800      -50.916397
 C         -56.255447     -156.992767      -51.019131
 H         -58.696850     -155.053162      -52.203609
 H         -57.558247     -155.994003      -53.171658
 H         -58.523258     -159.408005      -51.765976
 H         -57.424564     -158.558350      -52.990536
 H         -57.680107     -155.822205      -50.143532
 H         -56.676704     -154.746674      -51.288849
 H         -56.248306     -159.075531      -51.243080
 H         -57.279438     -158.399124      -49.947342
 H         -55.653488     -156.898773      -50.032265
 H         -55.653324     -157.047760      -51.901791
