20
 generated by VMD
 C         -13.505614      -30.535091       -8.373458
 N         -13.568597      -30.109879       -9.384861
 H         -11.022473      -31.390474       -5.415692
 H         -11.133814      -31.942638       -3.680817
 C         -10.958858      -32.231228       -4.707566
 C          -9.543488      -32.853817       -4.840450
 C         -11.971005      -33.198555       -5.185227
 C          -9.348884      -34.107613       -4.003118
 C         -11.868401      -34.478924       -4.348348
 C         -10.391459      -35.133888       -4.363390
 H          -8.857857      -32.129700       -4.495965
 H          -9.309299      -33.081100       -5.921653
 H         -12.881804      -32.650009       -4.989686
 H         -11.852558      -33.301071       -6.263287
 H          -9.280874      -33.869392       -2.940569
 H          -8.388467      -34.577923       -4.204985
 H         -12.545446      -35.306168       -4.775643
 H         -12.199999      -34.296364       -3.347807
 H         -10.360464      -35.954075       -3.594887
 H         -10.182073      -35.507027       -5.349186
