20
 generated by VMD
 C         -70.358437     -182.414642      -63.687916
 N         -69.503647     -182.829208      -64.321526
 H         -68.491615     -180.419998      -62.418583
 H         -71.231918     -182.034164      -63.134026
 C         -67.837250     -180.487595      -61.530903
 C         -67.528236     -181.850342      -61.031425
 C         -67.235703     -179.324341      -60.816277
 C         -66.041153     -182.112244      -61.076382
 C         -65.755692     -179.570160      -60.544022
 C         -65.298622     -181.079224      -60.155155
 H         -67.970901     -182.650452      -61.637959
 H         -68.058754     -182.103760      -60.075584
 H         -67.409492     -178.411270      -61.338181
 H         -67.897575     -179.212982      -59.901608
 H         -65.624741     -181.850555      -62.130001
 H         -65.789101     -183.198242      -60.747597
 H         -65.439919     -178.861786      -59.775005
 H         -65.365662     -179.388107      -61.569550
 H         -64.258774     -181.233658      -60.187130
 H         -65.744110     -181.310608      -59.099785
