20
 generated by VMD
 C         -49.217392     -126.913689      -39.903404
 N         -50.074421     -127.190453      -39.142887
 H         -46.471962     -127.132042      -42.695469
 H         -48.661236     -126.720047      -40.809071
 C         -46.261429     -126.437546      -41.877354
 C         -45.296673     -126.821594      -40.853245
 C         -46.674156     -125.032005      -41.754337
 C         -44.173115     -125.823128      -40.375854
 C         -45.631580     -123.894936      -41.439766
 C         -44.710365     -124.379112      -40.207531
 H         -44.910564     -127.789238      -41.131157
 H         -45.901196     -127.044510      -39.848808
 H         -47.196186     -124.794930      -42.710106
 H         -47.398121     -124.916679      -41.049759
 H         -43.367592     -125.890678      -41.058105
 H         -43.757622     -126.251602      -39.484108
 H         -46.280087     -123.055611      -41.168282
 H         -44.985565     -123.761948      -42.363052
 H         -43.984741     -123.560928      -39.902130
 H         -45.513042     -124.399261      -39.452271
