20
 generated by VMD
 C         -52.616676     -146.482727      -44.298828
 N         -51.730160     -146.605942      -45.082520
 H         -53.906395     -146.181396      -47.299507
 H         -53.537128     -146.512497      -43.671974
 C         -53.945938     -145.182785      -47.839592
 C         -52.909031     -145.049774      -48.923332
 C         -54.887653     -143.960266      -47.454319
 C         -53.376373     -144.383682      -50.236816
 C         -55.341896     -143.292374      -48.827194
 C         -54.236572     -143.136124      -49.900627
 H         -52.557919     -146.104111      -49.188179
 H         -52.013199     -144.491638      -48.395077
 H         -55.797638     -144.271881      -46.968094
 H         -54.331963     -143.209641      -47.023003
 H         -53.984592     -145.181351      -50.766075
 H         -52.466042     -143.994202      -50.820908
 H         -55.964684     -142.326477      -48.689995
 H         -55.970409     -144.055603      -49.294018
 H         -54.775692     -142.902939      -50.923012
 H         -53.515411     -142.292984      -49.795219
