20
 generated by VMD
 C         -10.491281      -35.857391       -9.070074
 N         -10.164159      -34.849026       -8.681643
 H         -13.090327      -36.950836       -6.817828
 H         -14.140265      -37.589417       -5.675964
 C         -13.744412      -37.775486       -6.657373
 C         -13.005880      -39.099953       -6.588803
 C         -14.787260      -37.755241       -7.827788
 C         -13.842916      -40.346226       -6.584368
 C         -15.641714      -39.087463       -7.819426
 C         -14.772477      -40.305763       -7.809608
 H         -12.342192      -39.160404       -5.751051
 H         -12.440109      -39.091671       -7.480518
 H         -15.450626      -36.867657       -7.775736
 H         -14.210513      -37.744156       -8.744418
 H         -14.488725      -40.299500       -5.676591
 H         -13.239686      -41.213181       -6.586086
 H         -16.346628      -39.100674       -8.724257
 H         -16.274744      -39.115288       -6.934072
 H         -15.461920      -41.184132       -7.775027
 H         -14.155036      -40.392582       -8.697236
