20
 generated by VMD
 C         -77.344376     -203.459534      -67.370430
 N         -77.991158     -204.387222      -67.039017
 H         -74.879967     -200.859451      -67.555756
 H         -76.745575     -202.620209      -67.560326
 C         -74.496559     -200.388641      -68.468674
 C         -74.889076     -199.000504      -68.718239
 C         -73.927505     -201.214127      -69.689323
 C         -73.895302     -198.243973      -69.427635
 C         -72.822266     -200.388870      -70.350952
 C         -73.287239     -199.026932      -70.719772
 H         -75.127815     -198.577454      -67.709312
 H         -75.813728     -199.040619      -69.358185
 H         -73.677307     -202.156281      -69.366425
 H         -74.809982     -201.393539      -70.311317
 H         -72.999023     -197.977661      -68.814232
 H         -74.356476     -197.336349      -69.843285
 H         -72.684441     -200.839310      -71.412514
 H         -71.766449     -200.342499      -69.841087
 H         -72.418846     -198.472244      -71.178375
 H         -74.115128     -199.213669      -71.526917
