20
 generated by VMD
 C         -47.662613     -136.684998      -45.981037
 N         -47.073952     -136.352722      -46.888950
 H         -50.764435     -135.729507      -45.624390
 H         -48.325146     -136.961823      -45.202328
 C         -51.150555     -136.673920      -45.191605
 C         -51.646313     -137.700424      -46.116814
 C         -51.925591     -136.555862      -43.820576
 C         -52.035324     -139.037277      -45.471169
 C         -52.344677     -137.977631      -43.267330
 C         -53.077503     -138.849197      -44.297058
 H         -50.919167     -137.916489      -46.980064
 H         -52.537361     -137.203979      -46.440189
 H         -51.154911     -136.084518      -43.163658
 H         -52.728500     -135.878723      -44.000916
 H         -51.260254     -139.648636      -45.043861
 H         -52.298061     -139.694489      -46.332920
 H         -53.137882     -137.901184      -42.433170
 H         -51.640850     -138.519424      -42.721485
 H         -53.346252     -139.750626      -43.947208
 H         -54.035267     -138.335938      -44.606243
