20
 generated by VMD
 C         -79.910965     -205.419510      -71.656540
 N         -79.923027     -206.597809      -71.540634
 H         -76.960098     -203.753998      -71.599594
 H         -79.855385     -204.287720      -71.609032
 C         -76.188698     -203.848633      -70.806725
 C         -75.324181     -202.672775      -70.464821
 C         -76.213249     -205.107666      -70.084351
 C         -73.866241     -203.228180      -70.337753
 C         -75.063126     -205.143295      -69.056313
 C         -73.846191     -204.666336      -69.768356
 H         -75.665794     -202.305954      -69.430107
 H         -75.489616     -201.886673      -71.159943
 H         -77.117424     -205.305191      -69.555443
 H         -76.210251     -205.806183      -70.869308
 H         -73.420197     -202.480530      -69.605049
 H         -73.312691     -203.075394      -71.312332
 H         -74.950096     -206.150314      -68.541359
 H         -75.371292     -204.474976      -68.269844
 H         -72.888794     -204.675323      -69.184586
 H         -73.650208     -205.278641      -70.637398
