20
 generated by VMD
 C         -48.481712     -135.663879      -46.312912
 N         -47.346230     -135.633942      -45.926407
 H         -52.061985     -134.904739      -45.831852
 H         -49.344250     -135.750305      -46.942188
 C         -51.686138     -135.773010      -45.142357
 C         -52.369423     -137.028839      -45.428066
 C         -51.252865     -135.564072      -43.663692
 C         -51.508636     -138.199615      -45.064468
 C         -50.475609     -136.765411      -43.197472
 C         -51.202812     -138.027969      -43.571091
 H         -52.450035     -136.983734      -46.557655
 H         -53.391792     -137.044388      -45.053288
 H         -50.877522     -134.509186      -43.599121
 H         -52.197845     -135.616547      -43.100677
 H         -50.586147     -138.149506      -45.568207
 H         -52.022625     -139.171219      -45.194195
 H         -50.302025     -136.720688      -42.138119
 H         -49.584846     -136.820053      -43.723633
 H         -50.598541     -138.822327      -43.136295
 H         -52.064838     -138.112106      -43.072327
