20
 generated by VMD
 C         -80.063828     -205.480835      -71.522652
 N         -80.037643     -206.613403      -71.547958
 H         -77.322136     -203.282593      -70.743233
 H         -79.977509     -204.469528      -71.742279
 C         -76.312721     -203.495911      -70.336540
 C         -75.171959     -202.534042      -70.595451
 C         -76.039154     -204.936859      -70.138435
 C         -73.819458     -203.137726      -70.368065
 C         -74.942932     -205.087097      -69.123138
 C         -73.685913     -204.465393      -69.683258
 H         -75.361877     -201.661835      -69.914169
 H         -75.284431     -202.214188      -71.618851
 H         -76.862350     -205.467346      -69.752548
 H         -75.846458     -205.242661      -71.153481
 H         -73.176575     -202.541428      -69.721527
 H         -73.200981     -203.253418      -71.296844
 H         -74.712128     -206.139023      -68.904457
 H         -75.263329     -204.590881      -68.139259
 H         -73.047447     -204.242157      -68.736092
 H         -73.129288     -205.285339      -70.204102
