20
 generated by VMD
 C         -12.200210      -31.482615       -8.668936
 N         -12.313252      -30.631628       -7.929008
 H         -10.990438      -34.848148       -7.752264
 H         -12.173298      -33.855247       -6.958696
 C         -11.536278      -34.795425       -6.807275
 C         -10.531754      -34.423107       -5.764956
 C         -12.237947      -36.097973       -6.481755
 C         -11.153026      -34.284794       -4.401593
 C         -12.953306      -35.865398       -5.080317
 C         -11.924868      -35.550377       -4.008525
 H         -10.028121      -33.443344       -6.038238
 H          -9.671034      -35.071091       -5.669101
 H         -12.984185      -36.266911       -7.289098
 H         -11.624281      -37.008110       -6.421021
 H         -11.771983      -33.384548       -4.304311
 H         -10.362413      -33.996128       -3.670305
 H         -13.557770      -36.786682       -4.851528
 H         -13.686605      -35.082764       -5.205282
 H         -12.533355      -35.256344       -3.131180
 H         -11.257645      -36.341328       -3.784312
