20
 generated by VMD
 C         -12.940655      -30.151762       -8.372210
 N         -13.872558      -30.484331       -8.894765
 H         -10.987766      -30.943384       -5.037810
 H         -10.778794      -31.638638       -3.377703
 C         -10.809498      -31.862038       -4.521141
 C          -9.442533      -32.436344       -4.861733
 C         -11.889300      -32.829227       -4.903045
 C          -9.241623      -33.847443       -4.248039
 C         -11.788500      -34.237881       -4.261938
 C         -10.379555      -34.860001       -4.461050
 H          -8.627848      -31.730959       -4.400972
 H          -9.164887      -32.376572       -5.909494
 H         -12.806588      -32.336243       -4.596521
 H         -11.998706      -32.801228       -5.986350
 H          -9.100951      -33.781754       -3.197902
 H          -8.260937      -34.231026       -4.488313
 H         -12.589317      -34.819778       -4.628072
 H         -12.009120      -34.219021       -3.155403
 H         -10.210638      -35.690273       -3.808095
 H         -10.289781      -35.289303       -5.479150
