20
 generated by VMD
 C         -40.893196     -100.837547      -32.772499
 N         -41.575146     -101.179276      -31.908218
 H         -38.257778     -102.631989      -32.592751
 H         -39.998848     -100.539398      -33.402172
 C         -37.397961     -102.833611      -32.005661
 C         -36.151936     -102.725319      -32.726395
 C         -37.254150     -102.746628      -30.521915
 C         -35.279957     -101.485779      -32.424961
 C         -36.337318     -101.676582      -30.091951
 C         -34.948624     -101.563911      -30.906837
 H         -36.352165     -102.897041      -33.818546
 H         -35.555622     -103.616501      -32.429680
 H         -38.243404     -102.415794      -30.119516
 H         -37.087189     -103.770309      -30.133408
 H         -35.736229     -100.478813      -32.593204
 H         -34.264023     -101.480240      -32.887897
 H         -36.210251     -101.752708      -28.996084
 H         -36.789230     -100.718376      -30.220757
 H         -34.339264     -100.606888      -30.766510
 H         -34.339310     -102.459534      -30.784277
