20
 generated by VMD
 C         -47.437229     -137.916580      -46.089355
 N         -47.282982     -137.344467      -47.036465
 H         -50.616364     -136.899689      -44.319508
 H         -47.659645     -138.643463      -45.368969
 C         -51.275795     -137.671326      -44.683544
 C         -51.333260     -138.284164      -46.047112
 C         -52.605419     -137.360291      -44.049713
 C         -52.257984     -139.522018      -46.022789
 C         -53.445530     -138.670517      -44.003296
 C         -53.612358     -139.236694      -45.323246
 H         -50.376549     -138.662231      -46.324974
 H         -51.623558     -137.698624      -47.008869
 H         -52.459858     -137.050385      -43.032688
 H         -53.062805     -136.480911      -44.469082
 H         -51.751007     -140.397522      -45.560131
 H         -52.373848     -139.792221      -47.108681
 H         -54.413162     -138.444748      -43.642494
 H         -53.011158     -139.404694      -43.372871
 H         -54.115532     -140.161423      -45.271690
 H         -54.228283     -138.497437      -46.000603
