20
 generated by VMD
 C         -21.270489      -65.218796      -17.164120
 N         -20.630495      -65.672104      -16.283253
 H         -24.592293      -63.425083      -18.035095
 H         -22.073320      -64.941635      -17.997568
 C         -24.722731      -64.551659      -18.226645
 C         -24.461485      -65.031410      -19.624058
 C         -24.951080      -65.489456      -17.111149
 C         -24.330276      -66.588692      -19.719208
 C         -24.890490      -67.019142      -17.401222
 C         -25.237144      -67.366684      -18.890217
 H         -23.603048      -64.609093      -20.088678
 H         -25.299646      -64.704018      -20.239882
 H         -24.189287      -65.360390      -16.333490
 H         -25.964682      -65.251762      -16.734671
 H         -23.239120      -66.907204      -19.549868
 H         -24.489578      -66.745842      -20.818722
 H         -25.522785      -67.664520      -16.729128
 H         -23.830757      -67.269241      -17.214478
 H         -25.207897      -68.450943      -19.039753
 H         -26.277935      -67.109451      -19.053295
