20
 generated by VMD
 C         -23.687014      -68.883987      -16.544802
 N         -23.324778      -69.615105      -15.747622
 H         -23.908426      -66.175354      -19.074955
 H         -23.896620      -67.999252      -17.239655
 C         -24.454401      -66.925011      -19.516785
 C         -23.946997      -67.746117      -20.661983
 C         -25.887766      -67.172188      -19.088202
 C         -24.501966      -69.253487      -20.682674
 C         -26.389706      -68.532516      -19.223024
 C         -25.958179      -69.175255      -20.540142
 H         -22.929018      -67.839211      -20.594339
 H         -24.085539      -67.251915      -21.589249
 H         -26.066093      -66.832733      -18.011267
 H         -26.596972      -66.336014      -19.676531
 H         -24.022602      -69.824478      -19.890991
 H         -24.292429      -69.813194      -21.657108
 H         -27.495502      -68.528183      -19.051565
 H         -26.127169      -69.240280      -18.377762
 H         -26.397219      -70.205093      -20.561132
 H         -26.468019      -68.517921      -21.255562
