20
 generated by VMD
 C         -40.135189     -104.761841      -36.391575
 N         -39.456234     -104.201958      -37.119843
 H         -40.145309     -108.368652      -35.298988
 H         -40.939667     -105.322388      -35.907757
 C         -39.870907     -108.490448      -34.253418
 C         -38.814316     -107.559814      -33.749973
 C         -40.160599     -109.754974      -33.473061
 C         -38.900856     -107.330719      -32.238762
 C         -40.270061     -109.462418      -32.058464
 C         -39.076324     -108.572639      -31.364225
 H         -38.808369     -106.605064      -34.363583
 H         -37.747940     -108.013817      -34.006721
 H         -41.091427     -110.160973      -33.857975
 H         -39.272484     -110.402565      -33.745419
 H         -39.833256     -106.730240      -32.039700
 H         -38.012177     -106.759697      -31.988712
 H         -40.264996     -110.498970      -31.586372
 H         -41.226360     -109.032333      -31.662148
 H         -39.292492     -108.241905      -30.424688
 H         -38.017849     -109.061523      -31.317471
