20
 generated by VMD
 C         -47.380711     -137.293930      -46.131790
 N         -47.159626     -136.717041      -47.122837
 H         -50.444004     -136.367783      -44.590160
 H         -47.647503     -137.960526      -45.326408
 C         -51.176437     -137.104019      -44.779236
 C         -51.433468     -137.965607      -46.044327
 C         -52.304890     -136.974640      -43.850586
 C         -52.096077     -139.252487      -45.710739
 C         -53.115997     -138.196884      -43.543079
 C         -53.293251     -139.020706      -44.830307
 H         -50.440071     -138.147568      -46.623711
 H         -52.073990     -137.437119      -46.730057
 H         -51.869041     -136.694199      -42.906086
 H         -53.033058     -136.228363      -44.279743
 H         -51.377480     -140.000931      -45.188313
 H         -52.433449     -139.641632      -46.676670
 H         -54.081940     -137.862518      -43.114613
 H         -52.502907     -138.874557      -42.882099
 H         -53.637745     -140.147720      -44.574451
 H         -54.016392     -138.531616      -45.488880
