20
 generated by VMD
 C         -58.854538     -152.501724      -50.643764
 N         -59.825825     -152.958618      -50.303646
 H         -56.929634     -151.387756      -48.676739
 H         -57.900295     -152.127670      -51.058552
 C         -56.244537     -151.126282      -49.473827
 C         -55.483677     -152.337143      -50.018890
 C         -55.641014     -149.663849      -49.366165
 C         -54.603050     -151.711792      -51.150597
 C         -54.712250     -149.309540      -50.593132
 C         -53.758041     -150.443939      -50.878349
 H         -56.110611     -153.221039      -50.387920
 H         -54.836761     -152.732498      -49.228439
 H         -56.513470     -149.010086      -49.278221
 H         -55.112034     -149.679184      -48.455544
 H         -55.175125     -151.641769      -52.101421
 H         -53.863838     -152.523621      -51.414810
 H         -54.219173     -148.316544      -50.560894
 H         -55.534065     -149.416702      -51.322472
 H         -53.154251     -150.174332      -51.752258
 H         -52.965622     -150.576111      -50.085377
