20
 generated by VMD
 C         -51.147297     -129.714020      -45.259178
 N         -51.610237     -130.219589      -46.163235
 H         -48.486401     -130.293610      -43.497936
 H         -50.516079     -129.142105      -44.546772
 C         -48.054230     -130.507797      -42.605461
 C         -48.164291     -131.906235      -41.970417
 C         -47.656380     -129.316818      -41.821213
 C         -46.930767     -132.168884      -41.210896
 C         -46.406948     -129.652802      -40.968208
 C         -46.541355     -131.030579      -40.230293
 H         -48.369251     -132.641953      -42.745926
 H         -49.046581     -131.987885      -41.248550
 H         -47.300831     -128.483383      -42.582569
 H         -48.560673     -129.032913      -41.274559
 H         -46.081543     -132.273499      -41.911156
 H         -46.803787     -133.109879      -40.645622
 H         -46.204155     -128.805695      -40.310871
 H         -45.660603     -129.649033      -41.759403
 H         -45.603794     -131.100128      -39.747089
 H         -47.318214     -130.875305      -39.480320
