20
 generated by VMD
 C         -40.891338     -103.673279      -35.724648
 N         -41.518936     -104.654831      -35.670525
 H         -38.916622     -104.338585      -33.827206
 H         -40.537590     -102.663338      -35.806995
 C         -38.563072     -104.970497      -33.077473
 C         -37.082848     -104.964790      -32.582565
 C         -39.371632     -106.188690      -32.957333
 C         -36.776508     -105.812714      -31.328230
 C         -39.042225     -106.898483      -31.762072
 C         -37.554138     -107.119003      -31.487562
 H         -36.784809     -104.001617      -32.225979
 H         -36.361404     -105.253487      -33.343616
 H         -40.525955     -106.028374      -32.935158
 H         -39.128952     -106.797943      -33.781246
 H         -37.143009     -105.265236      -30.416426
 H         -35.665730     -105.893898      -31.329374
 H         -39.649002     -107.874596      -31.712906
 H         -39.322678     -106.363586      -30.834274
 H         -37.463512     -107.714226      -30.623898
 H         -37.018486     -107.662613      -32.342690
