20
 generated by VMD
 C         -13.334095      -44.555622       -6.512747
 N         -14.060141      -44.104992       -5.795769
 H         -15.329988      -44.917255       -8.972965
 H         -14.443849      -43.919468      -10.196415
 C         -15.355262      -44.394741       -9.963190
 C         -16.466074      -43.332344       -9.893257
 C         -15.565737      -45.555695      -10.963007
 C         -16.832937      -42.976440      -11.294820
 C         -16.133873      -45.229942      -12.326575
 C         -17.257519      -44.236908      -12.085875
 H         -16.007036      -42.502800       -9.292579
 H         -17.411442      -43.702721       -9.486370
 H         -14.615737      -46.035183      -11.126681
 H         -16.299213      -46.169277      -10.454674
 H         -16.086266      -42.437840      -11.895711
 H         -17.731272      -42.339031      -11.228063
 H         -16.544254      -46.189613      -12.815045
 H         -15.367046      -44.793743      -12.920144
 H         -17.796244      -43.904652      -12.964374
 H         -18.027653      -44.733757      -11.554759
