20
 generated by VMD
 C         -70.290459     -182.861053      -64.534218
 N         -70.356621     -183.603210      -65.455910
 H         -68.081329     -180.555389      -62.781738
 H         -70.317108     -182.208298      -63.708767
 C         -67.655960     -180.878342      -61.815529
 C         -67.823700     -182.313660      -61.305389
 C         -66.980392     -179.714661      -61.048840
 C         -66.469635     -182.642105      -60.494545
 C         -65.640251     -180.296112      -60.484020
 C         -65.976860     -181.549194      -59.648705
 H         -67.917740     -183.066086      -62.110111
 H         -68.758141     -182.398727      -60.778427
 H         -66.815979     -178.703369      -61.673035
 H         -67.592842     -179.407196      -60.207500
 H         -65.799828     -182.875336      -61.432285
 H         -66.580025     -183.573288      -59.914963
 H         -64.943146     -179.674255      -59.908615
 H         -65.081757     -180.548386      -61.378902
 H         -65.042259     -181.903641      -59.086952
 H         -66.717529     -181.269745      -58.960434
