20
 generated by VMD
 C         -39.822884     -116.711197      -34.755608
 N         -39.403748     -115.678894      -34.478554
 H         -41.363289     -116.470818      -37.859718
 H         -39.910709     -117.736954      -35.032333
 C         -42.395073     -115.939804      -37.770466
 C         -43.162312     -115.737190      -39.079079
 C         -43.329956     -115.865433      -36.552975
 C         -44.484921     -116.620918      -39.147778
 C         -44.614902     -116.645683      -36.658810
 C         -45.312290     -116.208183      -37.935051
 H         -42.471821     -115.964851      -39.915085
 H         -43.505131     -114.701996      -39.316322
 H         -42.768879     -116.187325      -35.725529
 H         -43.488338     -114.847511      -36.287895
 H         -44.156292     -117.656479      -39.015347
 H         -44.943737     -116.537483      -40.165897
 H         -45.182880     -116.378975      -35.778885
 H         -44.374855     -117.737091      -36.573151
 H         -46.407429     -116.755669      -38.090103
 H         -45.469334     -114.990471      -37.975929
