20
 generated by VMD
 C         -22.850307      -52.418823      -12.067801
 N         -23.110510      -52.500561      -10.937094
 H         -20.027855      -52.875122      -14.175883
 H         -22.336399      -52.216404      -12.830996
 C         -18.957800      -52.792786      -13.854407
 C         -18.089182      -52.004879      -14.761036
 C         -18.248537      -53.835377      -13.026793
 C         -16.617533      -52.265255      -14.534070
 C         -17.009148      -53.234989      -12.255855
 C         -16.170214      -52.247658      -13.078390
 H         -18.393675      -50.975727      -14.516591
 H         -18.255190      -52.219406      -15.780251
 H         -18.909199      -54.235008      -12.302323
 H         -17.963350      -54.654732      -13.707787
 H         -16.025475      -51.573303      -15.164485
 H         -16.354342      -53.317909      -14.815933
 H         -16.316345      -54.049732      -12.129869
 H         -17.365437      -52.797848      -11.318467
 H         -16.223177      -51.256245      -12.605231
 H         -15.127639      -52.628845      -13.004681
