20
 generated by VMD
 C         -32.439182      -93.305862      -25.430407
 N         -32.945145      -94.303726      -25.598061
 H         -33.593460      -94.880089      -28.606253
 H         -31.910254      -92.293053      -25.302933
 C         -34.251049      -94.158554      -29.152025
 C         -35.512623      -93.618820      -28.479792
 C         -33.755684      -93.372055      -30.333836
 C         -35.273357      -92.105186      -28.153610
 C         -33.533604      -91.877411      -29.850021
 C         -34.816444      -91.253403      -29.291121
 H         -35.738159      -94.010635      -27.518135
 H         -36.340157      -93.808784      -29.179390
 H         -32.895771      -93.948494      -30.660179
 H         -34.463070      -93.407547      -31.172958
 H         -34.541405      -91.996765      -27.291313
 H         -36.110664      -91.582794      -27.711849
 H         -33.102005      -91.397629      -30.719046
 H         -32.809650      -91.815155      -28.965370
 H         -34.648582      -90.227173      -29.023479
 H         -35.612080      -90.984665      -30.044207
