20
 generated by VMD
 C         -51.315681     -127.681015      -41.257339
 N         -51.744431     -128.621902      -41.817684
 H         -47.560249     -127.696587      -40.420204
 H         -50.723125     -126.832321      -40.883698
 C         -46.538765     -127.300163      -40.646122
 C         -45.269485     -127.738594      -40.080074
 C         -46.752960     -125.847855      -41.247673
 C         -44.082237     -127.032928      -40.834232
 C         -45.490585     -125.355347      -41.894455
 C         -44.248989     -125.561180      -41.032906
 H         -45.105778     -128.876678      -40.137726
 H         -45.183533     -127.404800      -39.076294
 H         -47.497562     -125.730682      -42.085060
 H         -47.317635     -125.167435      -40.446781
 H         -43.891075     -127.502472      -41.865601
 H         -43.110012     -127.302216      -40.329750
 H         -45.458649     -124.256790      -42.150467
 H         -45.186337     -125.823906      -42.863705
 H         -43.411015     -125.051666      -41.536228
 H         -44.454704     -125.100250      -40.081596
