20
 generated by VMD
 C         -39.868153     -107.448334      -37.786579
 N         -39.110844     -106.593094      -37.846249
 H         -39.299118     -108.601875      -35.073734
 H         -40.688004     -108.140701      -37.653458
 C         -39.790318     -109.159706      -34.351402
 C         -38.947731     -110.101898      -33.474312
 C         -41.299881     -108.940369      -34.197704
 C         -39.766567     -110.954758      -32.475338
 C         -41.798161     -109.719543      -32.954292
 C         -41.181198     -111.077087      -32.826347
 H         -38.051289     -109.633568      -32.968884
 H         -38.507748     -110.908890      -34.171371
 H         -41.511597     -107.853836      -34.185947
 H         -41.760094     -109.411812      -35.048962
 H         -39.761871     -110.518539      -31.508831
 H         -39.371548     -111.956017      -32.457680
 H         -42.912361     -109.690765      -32.994232
 H         -41.660679     -109.061211      -32.004467
 H         -41.650536     -111.569702      -31.899593
 H         -41.376808     -111.707031      -33.746044
