20
 generated by VMD
 C         -31.545641      -79.212852      -26.397890
 N         -30.907360      -78.284073      -26.534222
 H         -28.693670      -80.902100      -25.360901
 H         -32.207989      -80.150650      -26.461744
 C         -28.754644      -81.606766      -24.425159
 C         -27.751347      -81.468498      -23.283220
 C         -29.868187      -82.512764      -24.093967
 C         -28.263847      -81.209404      -21.949163
 C         -30.421909      -82.353584      -22.638153
 C         -29.359034      -82.332626      -21.539625
 H         -27.113018      -80.652435      -23.609776
 H         -27.040346      -82.282448      -23.400270
 H         -30.549221      -82.363373      -24.876291
 H         -29.586927      -83.607819      -24.221094
 H         -28.628529      -80.193932      -21.896290
 H         -27.428085      -81.290924      -21.128084
 H         -31.211786      -83.130249      -22.483973
 H         -30.914057      -81.407745      -22.647207
 H         -29.639593      -82.190475      -20.528402
 H         -28.927174      -83.261482      -21.594776
