20
 generated by VMD
 C         -38.668312     -108.220032      -36.799057
 N         -37.874241     -108.840836      -37.359436
 H         -41.620701     -109.251945      -36.208237
 H         -39.382351     -107.552567      -36.313885
 C         -41.468723     -109.941856      -35.293270
 C         -40.658310     -111.200188      -35.416672
 C         -42.359898     -109.879852      -34.100384
 C         -40.298893     -111.914032      -34.046204
 C         -42.130184     -110.786995      -32.832336
 C         -41.587360     -112.068565      -33.332066
 H         -39.636234     -111.050331      -35.765942
 H         -41.169765     -111.913780      -36.001534
 H         -42.254780     -108.861725      -33.736530
 H         -43.450603     -109.886871      -34.354042
 H         -39.486347     -111.323868      -33.508190
 H         -39.897324     -112.825523      -34.370884
 H         -42.966522     -110.951904      -32.126392
 H         -41.407761     -110.230423      -32.177204
 H         -41.547710     -112.758873      -32.548443
 H         -42.445789     -112.510765      -33.979839
