20
 generated by VMD
 C         -32.292362      -95.130135      -25.514387
 N         -33.331917      -95.090202      -24.986671
 H         -33.888733      -94.579521      -27.834167
 H         -31.320108      -94.934845      -26.134287
 C         -34.294319      -93.928810      -28.620283
 C         -35.748394      -93.607773      -28.733322
 C         -33.390007      -93.483833      -29.730608
 C         -35.924988      -92.217049      -29.183899
 C         -33.672405      -92.062828      -30.202246
 C         -35.153656      -91.745255      -30.431215
 H         -36.033764      -93.882225      -27.757792
 H         -36.215122      -94.339149      -29.466084
 H         -32.359947      -93.426346      -29.414789
 H         -33.480984      -94.194664      -30.578213
 H         -35.396168      -91.583694      -28.386816
 H         -36.954926      -92.003883      -29.060431
 H         -33.194885      -91.872360      -31.152218
 H         -33.347061      -91.435638      -29.339066
 H         -35.336712      -90.699028      -30.677902
 H         -35.355759      -92.232140      -31.465712
