20
 generated by VMD
 C         -32.647728      -96.238213      -25.470184
 N         -33.039429      -95.814354      -24.434435
 H         -34.226418      -93.915810      -27.410221
 H         -32.412266      -96.410896      -26.452728
 C         -34.508400      -93.608543      -28.459320
 C         -35.888504      -93.568329      -28.913248
 C         -33.425674      -93.322029      -29.456228
 C         -36.173496      -92.444260      -29.875105
 C         -33.744720      -92.158630      -30.476048
 C         -35.129414      -92.236656      -31.042423
 H         -36.621590      -93.528656      -28.112381
 H         -36.128456      -94.472572      -29.466127
 H         -32.444542      -93.156364      -28.958618
 H         -33.234100      -94.224457      -30.022234
 H         -36.152309      -91.563164      -29.356182
 H         -37.201286      -92.547607      -30.328630
 H         -33.046951      -92.425301      -31.293140
 H         -33.582703      -91.163124      -29.937008
 H         -35.388546      -91.248474      -31.712362
 H         -35.184750      -93.104973      -31.759186
