20
 generated by VMD
 C         -77.317207     -203.511169      -67.265686
 N         -77.977417     -204.371338      -66.889816
 H         -75.368690     -200.934525      -67.942902
 H         -76.659180     -202.713150      -67.415962
 C         -74.758698     -200.380890      -68.717812
 C         -74.757095     -198.925720      -68.682487
 C         -73.827431     -201.139038      -69.652710
 C         -73.699394     -198.140564      -69.376747
 C         -72.822235     -200.208694      -70.340485
 C         -73.381416     -198.938385      -70.756851
 H         -74.790520     -198.763809      -67.638260
 H         -75.739326     -198.572693      -69.117752
 H         -73.188538     -201.850540      -68.969887
 H         -74.423378     -201.793671      -70.322083
 H         -72.799980     -198.134888      -68.789185
 H         -73.955673     -197.114777      -69.539482
 H         -72.486900     -200.821075      -71.156235
 H         -71.916122     -200.113892      -69.811180
 H         -72.678467     -198.402176      -71.321724
 H         -74.245888     -198.890549      -71.448952
