20
 generated by VMD
 C         -50.595966     -129.905258      -46.238255
 N         -50.893562     -130.232178      -45.109859
 H         -47.985878     -132.034897      -44.417339
 H         -50.655827     -130.019394      -47.350361
 C         -47.974495     -131.968323      -43.366531
 C         -48.235081     -133.148483      -42.576797
 C         -48.009953     -130.612305      -42.710976
 C         -47.707550     -133.205292      -41.125866
 C         -47.482712     -130.626495      -41.244038
 C         -48.073807     -131.802750      -40.476231
 H         -47.825428     -133.921631      -43.153938
 H         -49.367828     -133.390518      -42.521328
 H         -47.378723     -129.962601      -43.468639
 H         -49.039879     -130.229126      -42.651600
 H         -46.658955     -133.264191      -40.970604
 H         -48.280231     -133.911865      -40.530380
 H         -47.915997     -129.721054      -40.794720
 H         -46.309765     -130.535019      -41.342072
 H         -47.835335     -131.583801      -39.401012
 H         -49.178429     -131.844147      -40.379932
