20
 generated by VMD
 C         -23.308216      -53.966686      -14.841531
 N         -24.289223      -53.404430      -15.213170
 H         -19.834343      -54.810001      -15.578663
 H         -22.390888      -54.542595      -14.571959
 C         -19.470276      -55.141396      -14.717358
 C         -19.088932      -54.321617      -13.600859
 C         -18.995897      -56.576012      -14.840094
 C         -18.406359      -55.064732      -12.474175
 C         -17.901476      -57.180454      -13.867156
 C         -17.336008      -56.124180      -12.948216
 H         -19.856096      -53.613045      -13.183925
 H         -18.389856      -53.517647      -13.934984
 H         -19.822247      -57.247559      -14.915248
 H         -18.586397      -56.544067      -15.851235
 H         -19.175756      -55.621769      -11.896127
 H         -18.010239      -54.317863      -11.781695
 H         -17.130480      -57.610558      -14.477669
 H         -18.254635      -58.040295      -13.206496
 H         -16.973179      -56.612076      -12.043210
 H         -16.542036      -55.618359      -13.443793
