20
 generated by VMD
 C         -19.690681      -61.472664      -16.727743
 N         -19.805393      -60.495796      -16.152119
 H         -22.138845      -62.173512      -18.332958
 H         -19.528845      -62.520828      -17.149521
 C         -22.724329      -62.987679      -17.837700
 C         -24.007259      -63.365341      -18.484699
 C         -23.007412      -63.013447      -16.377981
 C         -24.679935      -64.670235      -18.215458
 C         -23.490398      -64.312233      -15.847727
 C         -24.721334      -64.778603      -16.676067
 H         -23.881462      -63.212402      -19.563555
 H         -24.716740      -62.508701      -18.151054
 H         -22.148230      -62.800400      -15.776239
 H         -23.760878      -62.154060      -16.103325
 H         -24.105486      -65.598114      -18.626873
 H         -25.686365      -64.707710      -18.744850
 H         -23.733292      -64.270462      -14.799690
 H         -22.732855      -65.031151      -16.132025
 H         -24.947775      -65.749809      -16.332161
 H         -25.544472      -64.089500      -16.302084
