20
 generated by VMD
 C         -13.504106      -28.733751       -6.643121
 N         -13.186457      -28.825733       -7.711767
 H         -11.946508      -30.621630       -4.973748
 H         -10.491081      -29.855513       -4.425531
 C         -10.920424      -30.791298       -4.599753
 C         -10.093410      -31.549946       -5.587213
 C         -10.947004      -31.501024       -3.236347
 C          -8.676458      -31.805004       -5.075326
 C          -9.488985      -31.671377       -2.698390
 C          -8.640423      -32.483791       -3.737309
 H          -9.972048      -31.072969       -6.548507
 H         -10.536774      -32.567352       -5.810205
 H         -11.557356      -30.956789       -2.475180
 H         -11.410576      -32.485203       -3.347351
 H          -8.282870      -30.800064       -5.026181
 H          -8.090746      -32.378990       -5.770929
 H          -9.577224      -32.160461       -1.723306
 H          -9.036823      -30.674789       -2.495654
 H          -7.623486      -32.588371       -3.375387
 H          -9.099429      -33.418282       -3.844849
