20
 generated by VMD
 C         -66.059853     -177.850540      -56.889240
 N         -66.930077     -177.131592      -57.153233
 H         -64.115471     -175.498108      -58.447803
 H         -65.234917     -178.555908      -56.654343
 C         -64.402046     -174.865616      -59.207577
 C         -65.571556     -173.923248      -59.196407
 C         -63.420052     -174.511658      -60.315331
 C         -65.232254     -172.527039      -59.060215
 C         -63.125477     -172.986725      -60.424030
 C         -64.345039     -172.022934      -60.197968
 H         -66.333237     -174.318222      -58.413998
 H         -66.169090     -173.967957      -60.060528
 H         -62.643661     -175.231018      -60.218193
 H         -63.802654     -174.879547      -61.260952
 H         -64.554321     -172.249542      -58.184273
 H         -66.146286     -171.875137      -58.882587
 H         -62.662193     -172.822037      -61.378178
 H         -62.281498     -172.702332      -59.682770
 H         -64.186325     -171.025421      -59.830128
 H         -64.967949     -171.841171      -61.111217
