20
 generated by VMD
 C         -42.090454     -120.374290      -34.812477
 N         -42.437649     -121.280174      -34.181248
 H         -43.654663     -120.174423      -37.701340
 H         -41.883247     -119.440681      -35.179741
 C         -44.023243     -119.431839      -38.372608
 C         -43.061695     -119.006920      -39.445045
 C         -45.261021     -118.606331      -38.088051
 C         -43.897392     -118.835457      -40.771576
 C         -46.017509     -118.565704      -39.321510
 C         -45.187401     -118.148926      -40.523819
 H         -42.263992     -119.659172      -39.683495
 H         -42.477833     -118.099342      -39.278538
 H         -45.848713     -119.035866      -37.274567
 H         -45.008793     -117.539848      -37.762054
 H         -44.121319     -119.788010      -41.238178
 H         -43.236248     -118.373863      -41.403648
 H         -46.979973     -117.949051      -39.316868
 H         -46.399704     -119.599564      -39.605545
 H         -45.600853     -118.018501      -41.527336
 H         -44.908901     -117.018806      -40.309158
