20
 generated by VMD
 C         -34.052826      -97.190140      -26.386522
 N         -34.826046      -97.155975      -25.522467
 H         -35.197754      -94.409134      -27.482531
 H         -33.295723      -96.975647      -27.237617
 C         -35.157196      -94.084991      -28.519485
 C         -35.998589      -94.776138      -29.474308
 C         -33.819748      -93.590385      -28.967688
 C         -35.957222      -94.182671      -30.935188
 C         -33.757877      -93.134270      -30.360771
 C         -34.489906      -94.101456      -31.379173
 H         -37.025822      -94.767303      -29.141018
 H         -35.737259      -95.849503      -29.629309
 H         -33.448177      -92.933670      -28.158043
 H         -33.217106      -94.543640      -28.824429
 H         -36.527412      -93.218521      -31.192490
 H         -36.428787      -95.001938      -31.552914
 H         -32.794762      -92.982399      -30.766272
 H         -34.194683      -92.084808      -30.265818
 H         -34.505108      -93.725693      -32.289982
 H         -33.981094      -95.132027      -31.334297
