20
 generated by VMD
 C         -67.388687     -192.305557      -67.241043
 N         -68.296700     -192.776779      -66.662895
 H         -69.814110     -190.178543      -65.187614
 H         -66.431648     -191.766754      -67.496040
 C         -70.884270     -190.214828      -65.091690
 C         -71.716072     -190.803284      -66.195930
 C         -71.564766     -189.538712      -63.993114
 C         -72.719193     -191.754333      -65.587639
 C         -73.130058     -189.911545      -63.925018
 C         -73.340157     -191.363571      -64.240593
 H         -71.060280     -191.276031      -67.027451
 H         -72.239906     -189.986725      -66.648720
 H         -71.003098     -189.860718      -62.973648
 H         -71.479599     -188.454468      -63.949139
 H         -72.207603     -192.754532      -65.361313
 H         -73.480469     -191.850555      -66.364693
 H         -73.720345     -189.345581      -64.622528
 H         -73.468590     -189.734116      -62.852352
 H         -73.016563     -192.083679      -63.564152
 H         -74.402367     -191.465103      -64.123337
