20
 generated by VMD
 C         -19.849848      -57.472233      -16.842564
 N         -19.220310      -57.878998      -17.707802
 H         -22.714264      -59.330448      -16.862381
 H         -20.678091      -56.980358      -16.230684
 C         -22.626854      -60.428848      -16.478149
 C         -23.919077      -61.199535      -16.407185
 C         -21.375751      -60.882111      -15.923043
 C         -23.751980      -62.637276      -15.920378
 C         -21.372873      -62.229290      -15.079634
 C         -22.744093      -62.779884      -14.728018
 H         -24.578974      -61.019985      -17.202093
 H         -24.540932      -60.644016      -15.696301
 H         -20.557415      -60.950790      -16.638699
 H         -21.072052      -60.136795      -15.173162
 H         -23.496555      -63.321251      -16.697624
 H         -24.702841      -62.970928      -15.562490
 H         -20.787197      -62.243084      -14.198282
 H         -20.919567      -62.895779      -15.813086
 H         -22.677032      -63.840878      -14.554068
 H         -23.131546      -62.403046      -13.772562
