20
 generated by VMD
 C         -61.835358     -172.359177      -54.954304
 N         -60.903831     -172.958344      -55.226742
 H         -61.963646     -170.866180      -57.566826
 H         -62.718407     -171.843384      -54.578789
 C         -62.722576     -170.144577      -57.815159
 C         -62.438904     -168.677948      -57.846504
 C         -64.160240     -170.714371      -57.886608
 C         -63.537327     -167.905426      -58.646240
 C         -65.071526     -169.778412      -58.645126
 C         -64.937035     -168.351074      -58.284847
 H         -61.504490     -168.566910      -58.346897
 H         -62.334343     -168.305237      -56.749775
 H         -64.116646     -171.675827      -58.337521
 H         -64.397980     -170.798706      -56.814533
 H         -63.433544     -168.094742      -59.749634
 H         -63.413647     -166.865585      -58.449097
 H         -66.092079     -170.172150      -58.357071
 H         -64.867706     -169.993179      -59.800209
 H         -65.704269     -167.712906      -58.681793
 H         -65.060585     -168.286636      -57.182438
