20
 generated by VMD
 C         -49.588840     -131.795135      -46.487175
 N         -50.156715     -132.516876      -47.241829
 H         -48.368832     -133.066010      -44.623096
 H         -48.826897     -131.218292      -45.958687
 C         -48.618221     -133.661041      -43.800861
 C         -49.297848     -134.957993      -44.043465
 C         -49.079235     -132.839615      -42.567348
 C         -49.507469     -135.731522      -42.713085
 C         -49.400478     -133.623581      -41.364006
 C         -50.250916     -134.858429      -41.676983
 H         -48.746662     -135.586639      -44.766235
 H         -50.261761     -134.813004      -44.460846
 H         -48.175541     -132.088821      -42.395691
 H         -50.012196     -132.260956      -42.747047
 H         -48.682304     -136.142868      -42.123154
 H         -50.198986     -136.561661      -42.880749
 H         -49.791088     -133.160156      -40.527321
 H         -48.401665     -133.835358      -41.009167
 H         -50.424294     -135.343109      -40.679897
 H         -51.053883     -134.438110      -42.130199
