20
 generated by VMD
 C         -35.992344      -97.838654      -26.791821
 N         -36.194263      -97.984161      -25.665531
 H         -35.924801      -95.122200      -28.124268
 H         -35.976959      -97.642075      -27.804018
 C         -35.414768      -95.174164      -29.059107
 C         -35.624809      -96.037552      -30.184263
 C         -34.175724      -94.407173      -29.015404
 C         -35.468555      -95.417038      -31.529711
 C         -33.858051      -93.793015      -30.373575
 C         -34.055462      -94.727226      -31.597488
 H         -36.666248      -96.387611      -30.074152
 H         -34.961525      -96.872269      -30.208652
 H         -34.225460      -93.621674      -28.239752
 H         -33.339382      -95.052109      -28.624632
 H         -36.131100      -94.532974      -31.680609
 H         -35.576576      -96.088776      -32.357029
 H         -32.940498      -93.217865      -30.365280
 H         -34.600624      -92.960587      -30.472387
 H         -33.967579      -93.969444      -32.618145
 H         -33.265991      -95.447311      -31.556711
