20
 generated by VMD
 C         -28.367413      -82.412827      -26.586216
 N         -27.528961      -82.978363      -27.109039
 H         -31.154236      -83.989792      -26.522064
 H         -29.097988      -81.846741      -25.900331
 C         -31.459749      -84.713531      -25.788355
 C         -30.922419      -84.580368      -24.403097
 C         -32.080776      -86.022964      -26.175152
 C         -32.006538      -85.085747      -23.371712
 C         -33.025482      -86.622787      -25.082779
 C         -32.510124      -86.526413      -23.618546
 H         -30.719017      -83.490356      -24.287231
 H         -30.035601      -85.029671      -24.097179
 H         -32.776466      -85.735085      -26.983458
 H         -31.310017      -86.749382      -26.484028
 H         -32.907219      -84.361458      -23.389250
 H         -31.593174      -84.876930      -22.367378
 H         -33.186779      -87.607300      -25.416864
 H         -34.006382      -86.080589      -25.089203
 H         -33.317921      -86.963867      -22.859741
 H         -31.645327      -87.201523      -23.747698
