20
 generated by VMD
 C         -21.807720      -52.260803      -11.487165
 N         -21.792458      -52.863358      -10.435760
 H         -19.942688      -52.175892      -14.056139
 H         -22.164644      -51.923504      -12.324619
 C         -19.002939      -51.778854      -13.755581
 C         -18.016397      -51.776939      -14.856061
 C         -18.552586      -51.717598      -12.363180
 C         -16.497934      -52.005486      -14.496853
 C         -17.095371      -51.328922      -12.106990
 C         -16.149139      -52.204018      -12.959461
 H         -18.033613      -50.766201      -15.233602
 H         -18.311533      -52.442493      -15.746716
 H         -19.134657      -51.013405      -11.788126
 H         -18.791981      -52.674999      -11.969280
 H         -15.935020      -51.149006      -14.914597
 H         -16.035543      -52.874439      -14.957586
 H         -16.913074      -51.476433      -11.048962
 H         -16.813089      -50.209240      -12.321789
 H         -15.094851      -51.863991      -12.840613
 H         -16.192930      -53.289021      -12.619678
