20
 generated by VMD
 C         -50.411739     -129.139130      -43.595600
 N         -50.848568     -129.591568      -44.579456
 H         -48.903713     -128.047440      -40.608906
 H         -50.227654     -128.777618      -42.599800
 C         -47.800777     -128.126709      -40.443401
 C         -47.121346     -129.484863      -40.187649
 C         -46.963013     -126.948143      -40.681595
 C         -46.252342     -129.813263      -41.368313
 C         -45.983456     -127.219444      -41.811905
 C         -45.213680     -128.579178      -41.522091
 H         -47.860336     -130.296982      -40.133289
 H         -46.598541     -129.405289      -39.261154
 H         -47.587997     -126.164566      -40.813465
 H         -46.500210     -126.925568      -39.636345
 H         -46.936394     -129.931976      -42.163250
 H         -45.797024     -130.712372      -41.136234
 H         -45.234341     -126.405472      -42.028114
 H         -46.507736     -127.325356      -42.793842
 H         -44.547443     -128.665344      -42.338745
 H         -44.526054     -128.474655      -40.670986
