20
 generated by VMD
 C         -31.117424      -77.614861      -25.697296
 N         -31.639860      -77.947189      -26.633816
 H         -29.322643      -78.346664      -22.900988
 H         -30.792534      -77.264984      -24.649960
 C         -28.935005      -79.323303      -23.147007
 C         -27.467709      -79.584511      -23.388580
 C         -29.738951      -80.631599      -22.862547
 C         -26.902792      -80.191765      -22.147106
 C         -29.239698      -81.190063      -21.493912
 C         -27.730673      -81.248238      -21.313190
 H         -26.926638      -78.752747      -23.894737
 H         -27.326841      -80.282684      -24.184574
 H         -30.882254      -80.439056      -22.863735
 H         -29.571091      -81.443840      -23.583618
 H         -26.735790      -79.455360      -21.391150
 H         -25.918396      -80.618576      -22.452658
 H         -29.490063      -82.288811      -21.359104
 H         -29.466345      -80.580879      -20.593914
 H         -27.423937      -81.173653      -20.309134
 H         -27.542397      -82.214859      -21.719608
