20
 generated by VMD
 C         -68.329796     -185.328537      -67.556839
 N         -67.621597     -185.312271      -66.626488
 H         -69.250893     -186.814011      -64.831062
 H         -68.934677     -185.499695      -68.444443
 C         -69.664932     -186.802689      -63.802876
 C         -70.337837     -185.514954      -63.296490
 C         -69.625481     -188.009476      -62.991188
 C         -70.060944     -185.252228      -61.836353
 C         -69.139519     -187.652878      -61.576283
 C         -69.938217     -186.467773      -60.956348
 H         -71.487724     -185.570328      -63.458954
 H         -69.894272     -184.656784      -63.900238
 H         -70.582115     -188.574539      -62.822918
 H         -68.801476     -188.582520      -63.421894
 H         -70.945572     -184.671982      -61.465546
 H         -69.148491     -184.625549      -61.690243
 H         -68.176933     -187.228363      -61.669189
 H         -69.124786     -188.530319      -60.905258
 H         -71.039375     -187.061874      -60.793068
 H         -69.519562     -186.221878      -59.946453
