20
 generated by VMD
 C         -59.863052     -157.564087      -56.150658
 N         -60.429268     -157.458893      -57.204933
 H         -60.119099     -157.239090      -52.509117
 H         -59.396358     -157.734360      -55.150002
 C         -59.282421     -157.924088      -52.575932
 C         -57.906803     -157.462601      -52.111637
 C         -59.397388     -159.393188      -52.957481
 C         -57.490349     -158.318146      -50.920620
 C         -59.037106     -160.323151      -51.758450
 C         -57.667118     -159.891159      -51.193161
 H         -57.850914     -156.358322      -51.685429
 H         -57.085697     -157.567230      -52.832851
 H         -60.446209     -159.491348      -53.247791
 H         -58.768391     -159.522491      -53.805332
 H         -58.056362     -158.143478      -49.998016
 H         -56.373123     -158.081314      -50.567841
 H         -59.282330     -161.349854      -52.127686
 H         -59.712360     -160.166183      -50.851715
 H         -57.559372     -160.389069      -50.223660
 H         -56.926132     -160.294174      -51.957172
