20
 generated by VMD
 C         -40.677048     -104.044693      -36.981998
 N         -40.084183     -104.904472      -36.476158
 H         -40.272762     -106.636360      -34.535740
 H         -41.162151     -103.110535      -37.218597
 C         -39.794910     -107.175369      -33.704681
 C         -38.479420     -106.643990      -33.236023
 C         -39.862381     -108.596703      -33.480392
 C         -38.212421     -106.955521      -31.642595
 C         -39.621880     -108.924698      -31.988619
 C         -38.337688     -108.433090      -31.402498
 H         -38.291508     -105.623459      -33.429485
 H         -37.800381     -107.111847      -33.955559
 H         -40.848736     -109.070412      -33.724651
 H         -39.124756     -108.967239      -34.211636
 H         -38.930984     -106.480377      -30.987406
 H         -37.178883     -106.739601      -31.412563
 H         -39.799862     -109.995300      -31.831358
 H         -40.447506     -108.530655      -31.457106
 H         -38.237396     -108.691673      -30.415102
 H         -37.537418     -109.067268      -31.990446
