20
 generated by VMD
 C         -73.050941     -199.704025      -65.616776
 N         -73.929710     -200.391312      -65.311798
 H         -71.308258     -196.726318      -67.025734
 H         -72.263786     -199.052414      -66.038467
 C         -72.139526     -196.452606      -67.686562
 C         -73.236961     -195.565292      -67.144440
 C         -72.404930     -197.003876      -69.049187
 C         -74.282425     -195.170792      -68.147247
 C         -73.843193     -197.362503      -69.371567
 C         -74.865540     -196.289886      -68.876709
 H         -72.819649     -194.751801      -66.517136
 H         -73.937576     -196.054337      -66.377594
 H         -72.052544     -196.330505      -69.786545
 H         -71.887756     -197.892456      -69.162537
 H         -73.722588     -194.673553      -68.925087
 H         -75.050156     -194.464539      -67.761307
 H         -74.066574     -198.328888      -68.862228
 H         -73.900909     -197.587814      -70.419701
 H         -75.401802     -195.882446      -69.701210
 H         -75.788406     -196.766769      -68.395226
