20
 generated by VMD
 C         -11.259192      -33.570377       -9.314665
 N         -10.543614      -32.901688       -8.728651
 H         -12.243362      -35.373146       -7.744618
 H         -12.534137      -35.193211       -6.024330
 C         -12.534443      -35.892727       -6.853131
 C         -11.704327      -37.114063       -6.457541
 C         -13.963956      -36.364391       -7.088175
 C         -12.323124      -37.911144       -5.252938
 C         -14.628507      -37.171402       -5.968683
 C         -13.744461      -38.345295       -5.560464
 H         -10.718177      -36.758835       -6.134297
 H         -11.564473      -37.787258       -7.345537
 H         -14.643929      -35.587498       -7.336970
 H         -13.999125      -37.002953       -8.029747
 H         -12.263411      -37.211903       -4.402728
 H         -11.598295      -38.800491       -5.082556
 H         -15.556739      -37.540672       -6.351464
 H         -14.967624      -36.552597       -5.111474
 H         -14.238722      -38.818161       -4.728587
 H         -13.739782      -39.158894       -6.295659
