20
 generated by VMD
 C         -68.799538     -188.949219      -67.139847
 N         -67.799019     -189.379120      -66.756706
 H         -68.767342     -187.624619      -64.120354
 H         -69.749077     -188.597961      -67.412033
 C         -69.439514     -188.052307      -63.360229
 C         -69.835602     -189.533386      -63.482006
 C         -70.586899     -187.189026      -62.712494
 C         -71.090134     -189.664490      -64.285255
 C         -71.751015     -187.230026      -63.760616
 C         -72.154922     -188.663254      -63.827782
 H         -69.864174     -189.877502      -62.489735
 H         -69.099556     -190.167267      -63.945503
 H         -70.959618     -187.735611      -61.815392
 H         -70.279060     -186.142426      -62.543381
 H         -71.457558     -190.709076      -64.217659
 H         -70.863350     -189.614578      -65.366928
 H         -71.386696     -187.028229      -64.785210
 H         -72.629036     -186.612640      -63.586128
 H         -72.755554     -188.864639      -62.981911
 H         -72.985489     -188.784988      -64.654152
