20
 generated by VMD
 C         -31.629440      -79.113808      -26.434082
 N         -30.932276      -78.186501      -26.652292
 H         -29.010937      -80.455978      -24.774382
 H         -32.303844      -79.925606      -26.365448
 C         -28.791574      -81.416832      -24.179796
 C         -27.619648      -81.374237      -23.392435
 C         -29.872307      -82.435600      -23.981155
 C         -28.156805      -81.186043      -21.884956
 C         -30.451511      -82.308823      -22.558399
 C         -29.153580      -82.290421      -21.612083
 H         -26.954777      -80.465240      -23.551098
 H         -26.986609      -82.244072      -23.390720
 H         -30.725025      -82.427872      -24.702414
 H         -29.374668      -83.355957      -24.154276
 H         -28.587425      -80.210884      -21.649818
 H         -27.303570      -81.260231      -21.168447
 H         -31.170767      -83.060020      -22.109800
 H         -30.937353      -81.349136      -22.443214
 H         -29.577059      -82.173027      -20.577459
 H         -28.557747      -83.253143      -21.514627
