20
 generated by VMD
 C         -49.055172     -140.858932      -45.370708
 N         -47.886440     -141.096451      -45.241909
 H         -51.208904     -138.690048      -46.290432
 H         -50.109863     -140.726151      -45.566048
 C         -52.127789     -139.268036      -46.289574
 C         -52.682293     -139.317368      -47.613033
 C         -52.827686     -139.871414      -45.145676
 C         -53.272312     -140.715546      -47.841484
 C         -53.614525     -141.152390      -45.458298
 C         -54.320610     -141.024063      -46.763714
 H         -51.846157     -139.056488      -48.294205
 H         -53.494839     -138.566833      -47.631702
 H         -52.067184     -140.052536      -44.428627
 H         -53.490585     -139.272751      -44.643368
 H         -52.587067     -141.633163      -47.711803
 H         -53.653225     -140.745560      -48.852692
 H         -54.336002     -141.348892      -44.727043
 H         -52.932640     -142.044815      -45.331631
 H         -54.812412     -142.004303      -46.837898
 H         -55.200897     -140.211533      -46.684040
