20
 generated by VMD
 C         -53.204582     -147.475708      -45.556667
 N         -54.319477     -147.491425      -45.233540
 H         -54.530861     -147.672180      -48.308094
 H         -52.170181     -147.374695      -45.938503
 C         -54.323601     -146.635025      -48.488155
 C         -53.254128     -146.515762      -49.558552
 C         -55.177002     -145.506882      -48.067333
 C         -53.437290     -145.319641      -50.578167
 C         -55.171459     -144.326401      -48.959145
 C         -53.814693     -144.065918      -49.667122
 H         -53.242413     -147.529800      -50.082981
 H         -52.263363     -146.447922      -49.075020
 H         -56.128590     -145.851669      -47.639729
 H         -54.648380     -145.197784      -47.197147
 H         -54.222240     -145.540344      -51.219360
 H         -52.464024     -145.164658      -51.056499
 H         -55.436764     -143.429779      -48.389553
 H         -55.964462     -144.575485      -49.749420
 H         -53.721115     -143.162003      -50.349888
 H         -53.006260     -143.846298      -48.931789
