20
 generated by VMD
 C         -28.520876      -88.199921      -26.055199
 N         -28.487297      -87.010490      -26.142948
 H         -31.213486      -89.443161      -26.222687
 H         -28.333466      -89.213669      -25.996773
 C         -32.170071      -88.980286      -26.492365
 C         -33.113304      -88.950157      -25.308163
 C         -32.699471      -88.841866      -27.860731
 C         -34.120541      -87.728745      -25.440302
 C         -33.864437      -87.815636      -27.878839
 C         -34.868057      -87.991287      -26.752245
 H         -32.483158      -88.910049      -24.483112
 H         -33.568104      -89.873161      -25.271378
 H         -32.051796      -88.427292      -28.606239
 H         -33.087574      -89.875557      -28.203661
 H         -33.531353      -86.849869      -25.407568
 H         -34.803848      -87.736343      -24.655523
 H         -34.468941      -87.911896      -28.834858
 H         -33.464485      -86.787933      -27.831558
 H         -35.646961      -87.127853      -26.851397
 H         -35.499039      -88.933174      -26.617153
