20
 generated by VMD
 C         -59.904049     -169.624954      -55.522152
 N         -59.660011     -168.633942      -55.059750
 H         -62.972832     -170.470016      -56.512897
 H         -60.191555     -170.609039      -55.819649
 C         -63.218590     -169.434525      -56.789421
 C         -62.814144     -168.996796      -58.131119
 C         -63.576950     -168.395126      -55.758228
 C         -63.372337     -167.648849      -58.701885
 C         -64.144646     -167.055527      -56.277145
 C         -63.529842     -166.589600      -57.598278
 H         -62.843063     -169.704483      -58.952377
 H         -61.711597     -168.695755      -58.003590
 H         -64.192070     -168.874802      -54.944172
 H         -62.591999     -168.112549      -55.286274
 H         -64.411354     -167.825272      -59.038639
 H         -62.747032     -167.429031      -59.563374
 H         -64.028526     -166.277832      -55.429852
 H         -65.290253     -167.146011      -56.537663
 H         -64.022598     -165.751816      -58.068764
 H         -62.578480     -166.221527      -57.335453
