20
 generated by VMD
 C          -5.947342      -20.943237        1.906281
 N          -6.014035      -22.060986        1.916947
 H          -4.955333      -18.786060       -1.108863
 H          -5.793232      -20.041792       -0.209814
 C          -5.801039      -19.465689       -1.129272
 C          -5.502237      -20.452648       -2.238741
 C          -7.144920      -18.722401       -1.349016
 C          -6.578370      -21.483316       -2.362992
 C          -8.258004      -19.766441       -1.393819
 C          -8.008447      -20.973761       -2.318272
 H          -4.546298      -21.005192       -1.993230
 H          -5.440405      -19.933346       -3.181026
 H          -7.263471      -18.068634       -0.516836
 H          -7.121307      -18.214853       -2.265961
 H          -6.477322      -22.162720       -1.486410
 H          -6.354280      -22.100372       -3.228101
 H          -9.203530      -19.319395       -1.646708
 H          -8.421278      -20.168831       -0.379162
 H          -8.615390      -21.814335       -1.999342
 H          -8.269000      -20.597027       -3.290294
