20
 generated by VMD
 C         -65.482903     -177.582077      -56.609684
 N         -66.114838     -176.799210      -56.030029
 H         -64.391281     -175.187454      -58.742348
 H         -64.885399     -178.361084      -57.021755
 C         -64.360229     -174.221268      -59.211815
 C         -65.483055     -173.277405      -58.879246
 C         -63.587227     -173.909378      -60.534088
 C         -64.906227     -171.916840      -58.767879
 C         -63.146465     -172.315643      -60.559322
 C         -64.295891     -171.392532      -60.143486
 H         -66.175858     -173.515320      -58.016193
 H         -66.054253     -173.387527      -59.779709
 H         -62.721821     -174.483917      -60.533436
 H         -64.314011     -174.032669      -61.329441
 H         -64.093918     -171.829285      -58.106792
 H         -65.578781     -171.116013      -58.539001
 H         -62.578701     -172.042221      -61.409084
 H         -62.366661     -172.252472      -59.704857
 H         -64.020416     -170.395905      -59.861359
 H         -65.094818     -171.180771      -60.877018
