20
 generated by VMD
 C         -69.780006     -183.245361      -65.608917
 N         -70.625694     -182.544250      -65.928711
 H         -68.085014     -184.105103      -62.998993
 H         -68.987556     -183.911407      -65.317757
 C         -67.689178     -183.481064      -62.188881
 C         -67.738152     -184.103775      -60.845062
 C         -67.464241     -182.079865      -62.404896
 C         -67.027367     -183.291489      -59.824207
 C         -66.705383     -181.399399      -61.240753
 C         -67.163574     -181.761795      -59.865582
 H         -67.288277     -185.091721      -60.967827
 H         -68.774132     -184.406830      -60.559391
 H         -66.900070     -181.895355      -63.283421
 H         -68.535477     -181.707108      -62.531570
 H         -65.930687     -183.461014      -59.706841
 H         -67.423141     -183.752823      -58.864681
 H         -66.831604     -180.274200      -61.313801
 H         -65.627548     -181.648148      -61.350857
 H         -66.657272     -181.246567      -59.092899
 H         -68.163467     -181.535995      -59.637585
