20
 generated by VMD
 C         -77.914017     -209.982803      -76.417282
 N         -77.354523     -210.946106      -76.154137
 H         -80.399048     -212.584900      -74.881386
 H         -78.511200     -209.054291      -76.709190
 C         -80.193672     -213.186279      -73.977348
 C         -78.714561     -213.178085      -73.602890
 C         -81.237862     -213.865128      -73.164490
 C         -78.672089     -212.789398      -72.063538
 C         -81.035973     -213.788177      -71.678024
 C         -79.538940     -213.878098      -71.374817
 H         -78.279396     -212.367844      -74.148567
 H         -78.246620     -214.154480      -73.756760
 H         -82.258270     -213.518631      -73.449089
 H         -81.213097     -214.874603      -73.379967
 H         -78.777428     -211.721542      -71.929840
 H         -77.613945     -212.929596      -71.665947
 H         -81.529259     -214.724289      -71.192360
 H         -81.429703     -212.873291      -71.257706
 H         -79.364868     -214.105911      -70.313850
 H         -79.138199     -214.804611      -71.774757
