20
 generated by VMD
 C         -31.565474      -79.212631      -26.389786
 N         -30.901316      -78.273849      -26.546434
 H         -28.727938      -80.882706      -25.255163
 H         -32.145809      -80.126389      -26.510864
 C         -28.747353      -81.593269      -24.429573
 C         -27.747797      -81.475952      -23.289005
 C         -29.873320      -82.500923      -24.082399
 C         -28.281181      -81.211678      -21.924946
 C         -30.403027      -82.354660      -22.620043
 C         -29.331705      -82.322479      -21.561646
 H         -27.129217      -80.691376      -23.605560
 H         -27.035295      -82.297775      -23.459242
 H         -30.586882      -82.395691      -24.887407
 H         -29.550789      -83.610657      -24.161047
 H         -28.745853      -80.218246      -21.835545
 H         -27.435198      -81.294342      -21.204023
 H         -31.180220      -83.076752      -22.537565
 H         -30.903854      -81.303589      -22.593157
 H         -29.699142      -82.116638      -20.534204
 H         -28.850744      -83.304863      -21.601194
