20
 generated by VMD
 C         -49.633228     -141.548080      -45.672150
 N         -49.625599     -142.431030      -44.883484
 H         -51.638256     -138.728607      -46.293762
 H         -49.540642     -140.625336      -46.240337
 C         -52.223366     -139.563934      -46.453907
 C         -52.809673     -139.598206      -47.907185
 C         -52.958782     -140.233978      -45.393856
 C         -52.986446     -141.090775      -48.233814
 C         -53.418289     -141.766556      -45.728786
 C         -53.958179     -141.782562      -47.169434
 H         -52.243793     -139.152405      -48.700764
 H         -53.796684     -139.090881      -47.824402
 H         -52.237679     -140.134720      -44.566574
 H         -53.758179     -139.525528      -44.949886
 H         -52.079613     -141.546967      -48.103306
 H         -53.407555     -141.257309      -49.174511
 H         -54.106285     -141.964828      -44.896091
 H         -52.532909     -142.527908      -45.698353
 H         -54.118591     -142.810669      -47.522907
 H         -54.916920     -141.296448      -47.090977
