20
 generated by VMD
 C         -50.724659     -145.069504      -44.805202
 N         -50.879745     -146.066254      -44.314499
 H         -53.472969     -144.276794      -46.243019
 H         -50.781658     -144.129700      -45.285030
 C         -53.559647     -143.626129      -47.103428
 C         -52.573536     -143.578308      -48.313606
 C         -54.739250     -142.614456      -47.078278
 C         -53.348019     -143.501053      -49.663715
 C         -55.433025     -142.725098      -48.429134
 C         -54.530399     -142.523315      -49.680191
 H         -51.882046     -144.368546      -48.320713
 H         -51.903629     -142.723511      -48.182938
 H         -55.488235     -142.797653      -46.321999
 H         -54.373871     -141.676529      -46.879894
 H         -53.752579     -144.563049      -49.719009
 H         -52.745708     -143.222534      -50.540379
 H         -56.228188     -141.940170      -48.342522
 H         -55.869102     -143.741226      -48.609421
 H         -55.161842     -142.487045      -50.594154
 H         -54.131832     -141.533661      -49.679142
