20
 generated by VMD
 C         -13.637109      -43.094955       -6.170078
 N         -12.889791      -42.874237       -6.981927
 H         -14.700427      -44.483437       -8.752269
 H         -14.432934      -43.201866       -9.907888
 C         -15.115403      -44.027672       -9.592133
 C         -16.471384      -43.464867       -9.166417
 C         -15.198653      -44.926189      -10.800267
 C         -17.041925      -42.690876      -10.327158
 C         -15.678413      -44.194218      -12.037158
 C         -16.971945      -43.416813      -11.627940
 H         -16.229736      -42.740677       -8.323978
 H         -17.202442      -44.163002       -8.651432
 H         -14.188752      -45.360538      -11.011806
 H         -15.787406      -45.815079      -10.566574
 H         -16.523958      -41.711773      -10.371365
 H         -18.089035      -42.428909      -10.143656
 H         -15.840446      -44.875607      -12.864166
 H         -14.838095      -43.436604      -12.324478
 H         -17.186558      -42.672733      -12.353573
 H         -17.730700      -44.174545      -11.650178
