20
 generated by VMD
 C         -11.583885      -26.860598       -0.787995
 N         -12.522880      -26.395844       -1.203251
 H         -10.353921      -26.179632       -4.036785
 H          -9.170246      -25.597635       -5.242099
 C          -9.273561      -26.006855       -4.203389
 C          -8.602179      -27.400162       -4.153393
 C          -8.657001      -25.141523       -3.097981
 C          -7.080354      -27.334723       -4.361003
 C          -7.186445      -24.977997       -3.400585
 C          -6.444786      -26.369757       -3.389354
 H          -9.025336      -28.135395       -4.926286
 H          -8.853755      -27.997166       -3.297862
 H          -9.231955      -24.175154       -3.042626
 H          -8.840623      -25.587982       -2.144472
 H          -6.905420      -27.066404       -5.471564
 H          -6.657278      -28.378078       -4.332809
 H          -6.750895      -24.336525       -2.631025
 H          -6.980114      -24.452978       -4.377939
 H          -5.411222      -26.127142       -3.637967
 H          -6.419988      -26.724396       -2.381657
