20
 generated by VMD
 C         -50.427082     -129.444717      -43.127560
 N         -50.488079     -128.263489      -43.272247
 H         -48.573711     -128.198288      -39.943352
 H         -50.199974     -130.510651      -43.120583
 C         -47.594040     -127.883224      -40.288910
 C         -46.488007     -128.770508      -39.888977
 C         -47.272076     -126.591354      -40.984619
 C         -45.445377     -128.935776      -41.052738
 C         -46.201077     -126.774437      -42.042980
 C         -44.969582     -127.608192      -41.720833
 H         -47.006088     -129.733551      -39.762474
 H         -46.046257     -128.619888      -38.851822
 H         -48.076950     -126.123970      -41.465931
 H         -47.007755     -125.813553      -40.195477
 H         -45.990490     -129.500366      -41.877815
 H         -44.516445     -129.326096      -40.551414
 H         -45.829987     -125.785828      -42.253971
 H         -46.620113     -127.262596      -42.907974
 H         -44.356030     -127.932411      -42.594238
 H         -44.249100     -127.069031      -41.010628
