20
 generated by VMD
 C         -40.534679     -100.210930      -30.330584
 N         -41.347336     -100.513054      -29.526094
 H         -37.065205     -101.215057      -30.683195
 H         -39.685646      -99.960953      -30.950891
 C         -36.354065     -100.396591      -30.926046
 C         -36.258419     -100.035828      -32.313892
 C         -35.338207     -100.217903      -29.837164
 C         -35.265228      -98.909988      -32.433098
 C         -34.378513      -99.053444      -30.015751
 C         -34.002689      -98.925209      -31.484102
 H         -37.239971      -99.812111      -32.661427
 H         -35.900822     -100.981277      -32.780632
 H         -35.883316     -100.098793      -28.926601
 H         -34.828831     -101.238510      -29.810371
 H         -35.899315      -97.979744      -32.137581
 H         -34.906441      -98.697006      -33.467670
 H         -33.400585      -99.292694      -29.506041
 H         -34.830589      -98.052132      -29.696941
 H         -33.579128      -97.967834      -31.705868
 H         -33.373611      -99.779160      -31.761009
