20
 generated by VMD
 C         -68.074539     -189.604172      -67.103737
 N         -67.025833     -189.084946      -67.201805
 H         -68.597992     -188.896378      -63.261490
 H         -69.105713     -189.897125      -66.851845
 C         -69.628189     -188.723724      -63.647179
 C         -70.513504     -189.953476      -63.779408
 C         -70.428650     -187.433548      -63.059383
 C         -71.940041     -189.781586      -64.222084
 C         -71.873756     -187.384583      -63.640175
 C         -72.676498     -188.671097      -63.533752
 H         -70.571144     -190.569260      -62.805569
 H         -69.939415     -190.703583      -64.424103
 H         -70.542809     -187.497269      -61.975731
 H         -70.010284     -186.479706      -63.429298
 H         -72.475754     -190.709915      -64.160011
 H         -71.886467     -189.550430      -65.299324
 H         -71.713913     -187.215195      -64.764748
 H         -72.471390     -186.500671      -63.200718
 H         -73.133606     -188.928696      -62.499924
 H         -73.524704     -188.400574      -64.115715
