20
 generated by VMD
 C         -67.445213     -189.597977      -66.833603
 N         -66.472076     -190.001160      -66.382278
 H         -70.195663     -190.939651      -65.769562
 H         -68.360107     -189.398865      -67.417778
 C         -70.945602     -190.297607      -65.214241
 C         -72.172546     -191.015045      -64.674576
 C         -70.382523     -189.046066      -64.479263
 C         -73.201477     -190.131027      -64.069733
 C         -71.520805     -188.232803      -63.866989
 C         -72.585602     -189.009140      -63.148563
 H         -71.890327     -191.721069      -63.915092
 H         -72.564590     -191.427444      -65.615631
 H         -69.756912     -189.404007      -63.681297
 H         -69.867638     -188.390717      -65.321587
 H         -73.920357     -190.768204      -63.572548
 H         -73.640091     -189.552811      -64.951187
 H         -71.971291     -187.687241      -64.770157
 H         -71.098465     -187.481186      -63.176308
 H         -72.282097     -189.450531      -62.244007
 H         -73.244232     -188.244934      -62.657825
