20
 generated by VMD
 C         -40.431263     -117.780899      -34.652767
 N         -39.433666     -117.259964      -35.029049
 H         -42.170860     -116.703613      -36.689388
 H         -41.204685     -118.375175      -34.293507
 C         -43.013973     -116.771072      -37.334274
 C         -42.840767     -116.765556      -38.856457
 C         -44.285011     -116.140518      -36.833187
 C         -44.037876     -117.395699      -39.540176
 C         -45.461094     -116.960800      -37.545033
 C         -45.426262     -116.906311      -38.987770
 H         -41.913429     -117.339828      -39.146278
 H         -42.735260     -115.677727      -39.174995
 H         -44.404778     -116.154182      -35.809616
 H         -44.537159     -115.147438      -37.262516
 H         -44.052406     -118.455208      -39.446693
 H         -44.038467     -117.223412      -40.572445
 H         -46.368359     -116.626732      -36.934681
 H         -45.447758     -118.095810      -37.353237
 H         -46.450378     -117.360855      -39.436298
 H         -45.476448     -115.858223      -39.354019
