20
 generated by VMD
 C         -60.780651     -155.149292      -52.224190
 N         -60.622982     -153.968628      -52.172409
 H         -57.706707     -154.140381      -52.921772
 H         -60.781162     -156.222321      -52.292301
 C         -57.004398     -154.080811      -52.106106
 C         -57.493683     -154.024094      -50.706314
 C         -55.742683     -153.362000      -52.444405
 C         -56.299984     -154.399963      -49.784729
 C         -54.585625     -153.794968      -51.571110
 C         -55.023712     -153.669479      -50.053699
 H         -58.281651     -154.843445      -50.635052
 H         -57.904640     -153.023163      -50.575863
 H         -55.494099     -153.597137      -53.458481
 H         -55.820580     -152.240021      -52.392288
 H         -56.263451     -155.456055      -49.882263
 H         -56.559334     -154.372986      -48.718151
 H         -53.625622     -153.336914      -51.704609
 H         -54.495499     -154.841995      -51.944038
 H         -54.350506     -154.251434      -49.378506
 H         -55.074440     -152.680557      -49.807247
