20
 generated by VMD
 C         -57.956779     -164.508362      -56.631672
 N         -57.235420     -163.730820      -57.168617
 H         -60.305542     -164.253281      -53.771622
 H         -58.474941     -165.306488      -56.085251
 C         -61.063492     -164.760788      -54.453644
 C         -61.852222     -165.861328      -53.914581
 C         -61.279335     -164.403992      -55.835609
 C         -63.221733     -165.263412      -53.874626
 C         -62.744537     -163.939590      -55.954838
 C         -63.781227     -164.909744      -55.298138
 H         -61.453438     -166.040634      -52.888893
 H         -61.856941     -166.702957      -54.636887
 H         -60.636433     -163.572205      -56.145786
 H         -61.137203     -165.108337      -56.591225
 H         -63.244236     -164.486237      -53.122360
 H         -63.904648     -165.894073      -53.264915
 H         -62.915726     -163.991226      -57.070831
 H         -62.732212     -162.953522      -55.501324
 H         -64.778961     -164.244095      -55.200760
 H         -64.116966     -165.903397      -55.823307
