20
 generated by VMD
 C         -50.434418     -129.426208      -43.180367
 N         -50.476017     -128.286636      -43.189133
 H         -48.678352     -128.046646      -40.021420
 H         -50.551407     -130.475845      -42.990250
 C         -47.649410     -127.834557      -40.247475
 C         -46.476345     -128.785446      -39.932514
 C         -47.293655     -126.584351      -40.944420
 C         -45.416271     -128.795639      -41.021305
 C         -46.120853     -126.782387      -42.046646
 C         -44.945496     -127.626007      -41.729053
 H         -46.796352     -129.874756      -39.799480
 H         -46.107201     -128.341324      -38.995667
 H         -48.163349     -126.090294      -41.423008
 H         -46.848629     -125.919044      -40.219654
 H         -45.669979     -129.563904      -41.753651
 H         -44.579269     -129.413330      -40.655983
 H         -45.773781     -125.820572      -42.293510
 H         -46.659328     -127.015411      -42.905579
 H         -44.534420     -127.794708      -42.704712
 H         -44.165836     -127.053787      -41.149151
