20
 generated by VMD
 C         -58.868252     -160.122055      -56.981625
 N         -58.365757     -159.978470      -58.065273
 H         -58.658955     -161.985550      -54.992664
 H         -59.388290     -160.251755      -56.027687
 C         -59.414906     -161.996460      -54.206528
 C         -59.004387     -162.340515      -52.798721
 C         -60.876236     -162.215775      -54.636684
 C         -60.138798     -161.986725      -51.808571
 C         -61.975658     -161.952774      -53.523293
 C         -61.469662     -162.540268      -52.165901
 H         -58.141727     -161.760147      -52.694481
 H         -58.850552     -163.421478      -52.770073
 H         -60.984070     -161.447922      -55.499046
 H         -60.877449     -163.227768      -54.989319
 H         -60.204342     -160.847977      -51.727234
 H         -59.939327     -162.135147      -50.739170
 H         -62.944637     -162.439117      -53.615841
 H         -62.263836     -160.914673      -53.519276
 H         -62.214001     -162.359100      -51.308140
 H         -61.468746     -163.657013      -52.268806
