20
 generated by VMD
 C         -12.522399      -27.396078       -4.705716
 N         -13.345841      -28.129147       -4.741661
 H         -10.872863      -30.197598       -2.753239
 H         -10.766884      -28.572767       -3.580896
 C         -10.134097      -29.452616       -3.236287
 C          -9.473970      -30.197134       -4.430133
 C          -9.054130      -28.775293       -2.347913
 C          -8.613935      -29.244726       -5.272902
 C          -8.025257      -27.938900       -3.132548
 C          -7.550520      -28.577639       -4.522875
 H         -10.296510      -30.674250       -5.031642
 H          -8.812929      -30.972172       -4.120507
 H          -9.605040      -28.140703       -1.650569
 H          -8.520997      -29.567549       -1.854560
 H          -9.344952      -28.529846       -5.689953
 H          -8.195343      -29.780525       -6.171835
 H          -7.134360      -27.682648       -2.512119
 H          -8.459235      -27.037390       -3.482569
 H          -6.935405      -27.879114       -5.078502
 H          -6.816187      -29.333614       -4.236649
