20
 generated by VMD
 C         -41.533298     -119.889778      -34.119377
 N         -41.739464     -120.674393      -34.914677
 H         -43.329105     -119.033188      -36.938835
 H         -41.107719     -119.115334      -33.544018
 C         -43.828651     -118.566025      -37.850258
 C         -43.063229     -118.399826      -39.183762
 C         -45.195648     -117.959396      -37.888180
 C         -43.939713     -118.767334      -40.410049
 C         -45.991131     -118.212563      -39.276066
 C         -45.208035     -117.903435      -40.489803
 H         -42.185543     -119.015480      -39.048832
 H         -42.605484     -117.503166      -39.253525
 H         -45.777203     -118.298096      -36.913872
 H         -45.144482     -116.867691      -37.876434
 H         -44.149281     -119.793358      -40.420021
 H         -43.283794     -118.432404      -41.240486
 H         -46.879772     -117.569473      -39.166645
 H         -46.370094     -119.383530      -39.447990
 H         -45.911198     -118.268860      -41.343628
 H         -44.970013     -116.818794      -40.490009
