20
 generated by VMD
 C         -20.258793      -52.242508       -9.821675
 N         -21.075651      -51.498554      -10.219003
 H         -18.413233      -49.256401      -10.634102
 H         -19.318100      -52.761711       -9.571265
 C         -17.640732      -49.373741      -11.384808
 C         -16.860937      -50.602131      -11.804579
 C         -17.272999      -48.201855      -12.246344
 C         -16.922201      -50.842350      -13.332549
 C         -16.923613      -48.401276      -13.787834
 C         -16.197592      -49.677876      -14.051699
 H         -17.380213      -51.512581      -11.410500
 H         -15.830725      -50.534958      -11.450063
 H         -18.136938      -47.504208      -12.114346
 H         -16.436735      -47.650555      -11.745211
 H         -17.918106      -50.925499      -13.714795
 H         -16.295902      -51.740162      -13.411740
 H         -16.298578      -47.632526      -14.117592
 H         -17.881191      -48.487232      -14.387412
 H         -16.095961      -49.857182      -15.104815
 H         -15.201217      -49.618958      -13.685624
