20
 generated by VMD
 C         -38.766384      -99.108994      -27.111216
 N         -37.784241      -99.218277      -26.524967
 H         -37.013573      -97.246231      -30.152359
 H         -39.667488      -98.856125      -27.758646
 C         -36.121014      -96.927795      -30.544987
 C         -35.588413      -97.459099      -31.796432
 C         -35.279400      -96.359375      -29.447113
 C         -34.247715      -96.885468      -32.323536
 C         -34.293617      -95.420052      -30.047646
 C         -33.434811      -96.188583      -31.138180
 H         -36.360466      -97.344917      -32.572765
 H         -35.593735      -98.580841      -31.654354
 H         -36.060131      -95.795944      -28.919760
 H         -34.765476      -97.112480      -28.794151
 H         -34.513714      -96.116035      -33.058540
 H         -33.665966      -97.745407      -32.731201
 H         -33.513569      -95.119102      -29.306307
 H         -34.708424      -94.553192      -30.514986
 H         -32.785290      -95.415466      -31.495003
 H         -32.779572      -97.007179      -30.579733
