20
 generated by VMD
 C         -78.915337     -204.205139      -70.433235
 N         -79.892525     -204.759766      -70.570122
 H         -76.597481     -203.437775      -68.507103
 H         -78.040924     -203.665955      -70.322586
 C         -75.820923     -203.246994      -69.191078
 C         -75.814453     -201.975616      -69.996887
 C         -74.544067     -203.991135      -69.042404
 C         -74.399841     -201.553894      -70.646324
 C         -73.406532     -203.002106      -68.973190
 C         -73.231667     -202.406723      -70.403671
 H         -76.206604     -201.121994      -69.353447
 H         -76.523865     -202.232437      -70.729477
 H         -74.638863     -204.482819      -68.013748
 H         -74.477959     -204.912933      -69.693611
 H         -74.194916     -200.513062      -70.255180
 H         -74.527138     -201.443649      -71.737236
 H         -72.446671     -203.392487      -68.652023
 H         -73.613213     -202.278503      -68.169647
 H         -72.267731     -201.799072      -70.485062
 H         -72.954750     -203.131943      -71.134842
