20
 generated by VMD
 C         -79.525017     -206.733826      -74.916939
 N         -80.125641     -206.113556      -74.142525
 H         -78.591095     -206.481323      -71.340141
 H         -79.110222     -207.467300      -75.528885
 C         -77.570770     -206.914001      -71.089821
 C         -76.295357     -206.146622      -71.406090
 C         -77.276611     -208.155991      -70.313728
 C         -75.300720     -205.964355      -70.241959
 C         -76.306458     -207.983475      -69.165276
 C         -75.038315     -207.322968      -69.613457
 H         -76.692200     -205.105118      -71.770256
 H         -75.815048     -206.682068      -72.292007
 H         -78.240707     -208.459335      -70.008011
 H         -76.890663     -208.847961      -71.075890
 H         -75.848930     -205.276917      -69.602127
 H         -74.368790     -205.380142      -70.407471
 H         -76.046585     -208.982315      -68.708145
 H         -76.735283     -207.451553      -68.355240
 H         -74.304306     -207.327042      -68.787933
 H         -74.427124     -207.920975      -70.391663
