20
 generated by VMD
 C         -58.979614     -152.326599      -50.708729
 N         -59.723854     -153.047989      -50.142292
 H         -57.157879     -151.215714      -48.970760
 H         -58.323380     -151.588013      -51.243591
 C         -56.282776     -150.999023      -49.550724
 C         -55.285595     -152.049149      -49.949112
 C         -55.582989     -149.687469      -49.270882
 C         -54.488991     -151.761200      -51.189644
 C         -54.770115     -149.324203      -50.487389
 C         -53.843575     -150.454956      -50.962017
 H         -55.779949     -152.942123      -50.060837
 H         -54.573353     -152.170059      -49.101475
 H         -56.298576     -148.918152      -48.910000
 H         -54.833942     -149.927719      -48.468925
 H         -55.108440     -151.686600      -52.095367
 H         -53.726120     -152.493881      -51.268845
 H         -54.271526     -148.250580      -50.507298
 H         -55.507523     -149.125275      -51.264339
 H         -53.360310     -150.010574      -51.905457
 H         -53.036243     -150.454147      -50.333630
