20
 generated by VMD
 C         -79.537224     -206.752548      -73.574516
 N         -80.404106     -206.066711      -73.312225
 H         -77.975739     -205.248672      -71.070793
 H         -78.758568     -207.453064      -73.677521
 C         -77.041275     -205.326675      -70.498817
 C         -75.991417     -204.333191      -70.887794
 C         -76.745628     -206.627930      -69.923676
 C         -74.554260     -204.577118      -70.244225
 C         -75.424927     -206.628998      -69.059212
 C         -74.365601     -206.004883      -69.892654
 H         -76.417557     -203.355026      -70.677116
 H         -75.993698     -204.395966      -72.016472
 H         -77.464645     -207.010178      -69.229782
 H         -76.706566     -207.419540      -70.666389
 H         -74.369820     -203.838135      -69.438713
 H         -73.959351     -204.305923      -71.114494
 H         -75.203262     -207.769638      -68.863457
 H         -75.557068     -206.154648      -68.119431
 H         -73.384232     -205.930237      -69.413277
 H         -74.321907     -206.720963      -70.715607
