20
 generated by VMD
 C         -64.456581     -175.197617      -55.931839
 N         -63.610691     -175.536743      -56.681240
 H         -65.321655     -174.099442      -58.242939
 H         -65.270226     -174.992935      -55.248001
 C         -65.032433     -173.155334      -58.778923
 C         -65.494621     -171.808411      -58.301041
 C         -64.190407     -173.341324      -59.939499
 C         -64.397743     -170.777161      -58.185265
 C         -63.161583     -172.199203      -60.056610
 C         -63.711685     -170.707870      -59.657871
 H         -66.032921     -172.088242      -57.347046
 H         -66.329109     -171.545959      -58.949726
 H         -63.771370     -174.295990      -59.980923
 H         -64.888412     -173.368774      -60.767216
 H         -63.618336     -171.271927      -57.493576
 H         -64.775803     -169.800598      -57.718616
 H         -62.751728     -172.114059      -61.092419
 H         -62.336143     -172.531021      -59.477272
 H         -62.875454     -169.937820      -59.790771
 H         -64.500786     -170.512314      -60.396618
