20
 generated by VMD
 C         -39.858120     -105.644051      -36.990948
 N         -40.307446     -106.562561      -37.506214
 H         -38.827492     -108.103554      -35.061176
 H         -39.558823     -104.646927      -36.714622
 C         -39.261349     -108.467506      -34.161476
 C         -38.473133     -109.232025      -33.246994
 C         -40.546009     -109.057121      -34.455296
 C         -39.199112     -109.465347      -31.898766
 C         -41.394363     -109.322159      -33.159126
 C         -40.538609     -110.122963      -32.102024
 H         -37.458458     -108.693459      -33.157120
 H         -38.352749     -110.273376      -33.752766
 H         -41.163563     -108.528976      -35.123970
 H         -40.202534     -110.051918      -34.874687
 H         -39.279720     -108.502480      -31.423439
 H         -38.593376     -110.090073      -31.353550
 H         -42.306065     -109.852074      -33.477844
 H         -41.562977     -108.324776      -32.675613
 H         -41.037270     -110.301186      -31.123737
 H         -40.299114     -111.163147      -32.598888
