20
 generated by VMD
 C         -75.325233     -201.633026      -66.212959
 N         -75.963638     -202.414108      -65.683167
 H         -76.171227     -199.748306      -69.113258
 H         -74.763062     -200.888260      -66.846992
 C         -75.167931     -199.345291      -69.240120
 C         -74.830238     -198.200638      -68.301559
 C         -74.142220     -199.804169      -70.142845
 C         -73.322655     -197.832291      -68.162682
 C         -73.129913     -198.668594      -70.503113
 C         -72.766861     -197.569214      -69.594124
 H         -75.258492     -198.508270      -67.230560
 H         -75.473465     -197.426575      -68.657082
 H         -73.665558     -200.718216      -69.768013
 H         -74.513504     -200.076920      -71.096008
 H         -72.784286     -198.652481      -67.651260
 H         -73.212982     -197.045822      -67.361862
 H         -73.491348     -198.072784      -71.377258
 H         -72.245621     -199.374222      -70.814972
 H         -71.651367     -197.434616      -69.539185
 H         -73.088661     -196.614090      -69.934868
