20
 generated by VMD
 C         -10.327971      -37.123928       -7.391275
 N         -10.494927      -36.339207       -8.196522
 H         -13.548120      -37.596413       -7.606296
 H         -14.550197      -38.607918       -6.555988
 C         -14.114580      -38.614849       -7.542369
 C         -13.246279      -39.885693       -7.654595
 C         -15.240248      -38.536716       -8.557530
 C         -14.216616      -41.072739       -7.318102
 C         -16.141943      -39.766933       -8.507670
 C         -15.362984      -41.156662       -8.368842
 H         -12.423119      -39.897369       -6.914136
 H         -12.913939      -39.933186       -8.702204
 H         -15.804923      -37.626499       -8.350996
 H         -14.746175      -38.527786       -9.523956
 H         -14.698842      -40.925598       -6.304390
 H         -13.585985      -41.948303       -7.364506
 H         -16.791582      -39.851288       -9.418783
 H         -16.813246      -39.739956       -7.663247
 H         -16.032803      -41.950665       -8.096883
 H         -15.017450      -41.414005       -9.359216
