20
 generated by VMD
 C         -68.273895     -194.367355      -66.285065
 N         -67.713646     -194.273117      -65.281792
 H         -70.583984     -191.279663      -67.062798
 H         -68.490990     -194.367081      -67.327477
 C         -71.449142     -191.253677      -66.417839
 C         -72.481361     -190.187103      -66.498604
 C         -71.496620     -192.261139      -65.180115
 C         -73.860100     -190.718826      -66.389999
 C         -72.890060     -192.170090      -64.475510
 C         -74.041901     -191.964264      -65.468697
 H         -72.456474     -189.535202      -67.435974
 H         -72.342751     -189.442139      -65.733261
 H         -71.244652     -193.210342      -65.553070
 H         -70.701210     -192.049500      -64.514404
 H         -74.336266     -190.873184      -67.374046
 H         -74.420578     -189.791153      -66.122803
 H         -72.906731     -191.320831      -63.819248
 H         -72.966377     -193.128784      -63.953079
 H         -74.036674     -192.876633      -66.235512
 H         -74.961121     -191.924393      -64.979836
