20
 generated by VMD
 C         -47.594898     -139.388443      -45.821659
 N         -46.700554     -138.896210      -46.367756
 H         -50.789745     -138.445801      -44.935341
 H         -48.353264     -140.083557      -45.435162
 C         -51.744606     -138.875443      -45.229549
 C         -51.825008     -139.307770      -46.682079
 C         -53.076176     -138.745819      -44.395786
 C         -53.034008     -140.328888      -46.935158
 C         -54.224602     -139.666641      -44.845478
 C         -54.384357     -139.856476      -46.347183
 H         -50.896675     -139.706238      -46.903439
 H         -51.957031     -138.449158      -47.321087
 H         -52.816299     -138.757339      -43.299526
 H         -53.537846     -137.727448      -44.552135
 H         -52.867081     -141.265579      -46.467430
 H         -53.252186     -140.514984      -47.994240
 H         -55.115799     -139.323654      -44.273071
 H         -54.088226     -140.665192      -44.603706
 H         -55.199345     -140.598938      -46.470028
 H         -54.906712     -138.995453      -47.019848
