20
 generated by VMD
 C         -79.409637     -209.138092      -76.189400
 N         -79.199814     -209.680069      -77.195183
 H         -77.641235     -209.083527      -72.857033
 H         -79.619980     -208.558640      -75.313591
 C         -77.934334     -210.024200      -72.389801
 C         -76.953316     -210.607819      -71.375778
 C         -79.044487     -210.896576      -72.777870
 C         -77.673920     -211.160629      -70.229439
 C         -79.711510     -211.790192      -71.660583
 C         -78.720131     -212.224991      -70.598183
 H         -76.451035     -209.724335      -71.028923
 H         -76.262146     -211.304199      -71.705833
 H         -79.812767     -210.321915      -73.311432
 H         -78.638260     -211.642868      -73.549156
 H         -78.067444     -210.339371      -69.605804
 H         -77.029701     -211.659225      -69.488228
 H         -80.304382     -212.522034      -72.062820
 H         -80.382057     -210.983475      -71.136612
 H         -79.243973     -212.655792      -69.733368
 H         -78.085999     -212.984207      -71.133263
