20
 generated by VMD
 C         -49.926716     -131.609955      -46.663460
 N         -50.234291     -131.799728      -47.749905
 H         -48.355171     -132.016205      -43.934952
 H         -49.964016     -131.082733      -45.690136
 C         -49.038395     -132.217270      -43.146553
 C         -49.668350     -133.558151      -43.361294
 C         -48.731262     -131.795853      -41.706158
 C         -48.927631     -134.646530      -42.498291
 C         -47.955620     -132.875229      -40.989967
 C         -48.811474     -134.202774      -41.090965
 H         -49.607048     -133.892029      -44.408989
 H         -50.719486     -133.402283      -43.103054
 H         -48.055908     -130.903641      -41.699966
 H         -49.681931     -131.633545      -41.261166
 H         -47.905228     -134.712479      -42.963112
 H         -49.504478     -135.572250      -42.717033
 H         -47.936386     -132.656601      -39.978672
 H         -46.964588     -133.112564      -41.441509
 H         -48.213295     -134.968689      -40.473869
 H         -49.713318     -134.249725      -40.466743
