20
 generated by VMD
 C         -66.725685     -189.639114      -66.558983
 N         -66.234795     -189.398514      -67.569984
 H         -70.518700     -190.295181      -65.636475
 H         -67.098068     -189.987869      -65.568382
 C         -70.756386     -190.041794      -64.650429
 C         -71.985786     -190.853668      -64.126015
 C         -70.413246     -188.708054      -64.113281
 C         -73.200027     -189.882706      -64.014679
 C         -71.643410     -187.874649      -63.721775
 C         -72.828438     -188.716064      -63.135746
 H         -71.794685     -191.154739      -63.023239
 H         -72.209015     -191.854187      -64.703407
 H         -69.928413     -188.875000      -63.179539
 H         -69.850090     -188.048477      -64.913246
 H         -74.087463     -190.361496      -63.612324
 H         -73.465157     -189.516129      -65.009537
 H         -71.986649     -187.503006      -64.690498
 H         -71.488411     -187.065735      -63.005318
 H         -72.809578     -189.055832      -62.069450
 H         -73.695763     -187.909424      -63.107288
