20
 generated by VMD
 C         -21.544243      -65.633987      -17.113976
 N         -20.889816      -66.021988      -16.284506
 H         -24.168922      -63.771885      -17.866337
 H         -22.166592      -65.128464      -18.007269
 C         -24.425308      -64.806778      -18.281483
 C         -24.505238      -65.206306      -19.737782
 C         -25.245182      -65.555969      -17.285997
 C         -24.309576      -66.729584      -19.915401
 C         -25.042347      -67.037392      -17.468031
 C         -25.049747      -67.490067      -18.900866
 H         -23.848118      -64.621841      -20.330086
 H         -25.479895      -64.843674      -19.993862
 H         -24.869684      -65.317932      -16.206837
 H         -26.381784      -65.346092      -17.353298
 H         -23.181976      -66.858131      -19.985197
 H         -24.658014      -67.037361      -20.924953
 H         -25.806910      -67.461670      -16.781658
 H         -24.082949      -67.291328      -17.036480
 H         -24.680227      -68.535324      -18.997881
 H         -26.021288      -67.589645      -19.304239
