20
 generated by VMD
 C         -18.167580      -49.978104       -8.850615
 N         -19.268452      -49.982082       -9.006966
 H         -16.480942      -47.221901       -9.968494
 H         -17.194971      -48.687263      -10.476523
 C         -16.709127      -47.805271      -10.871658
 C         -15.483700      -48.309650      -11.676726
 C         -17.756367      -47.046654      -11.700129
 C         -16.004303      -49.176224      -12.771099
 C         -18.010647      -47.655987      -13.089690
 C         -16.842693      -48.347572      -13.706388
 H         -14.787728      -48.875347      -11.006827
 H         -14.853494      -47.442818      -11.952962
 H         -18.652176      -46.884499      -11.097663
 H         -17.358189      -46.033203      -11.889463
 H         -16.629837      -50.009693      -12.447151
 H         -15.203507      -49.675018      -13.280731
 H         -18.452444      -46.902756      -13.817974
 H         -18.759140      -48.445427      -13.017999
 H         -17.287542      -48.969879      -14.517146
 H         -16.172239      -47.596161      -14.161651
