20
 generated by VMD
 C          -6.259173      -22.325691        1.907047
 N          -6.399936      -22.958118        2.833400
 H          -5.397281      -19.724304       -0.621167
 H          -6.909374      -20.454443       -0.227992
 C          -6.300667      -20.124184       -1.021899
 C          -5.762680      -21.287056       -1.930951
 C          -7.205822      -19.162106       -1.865139
 C          -6.914002      -21.993467       -2.680070
 C          -8.320993      -19.842901       -2.544374
 C          -7.870453      -20.995247       -3.364212
 H          -5.221740      -21.999554       -1.339865
 H          -5.075429      -20.737734       -2.685603
 H          -7.499394      -18.269457       -1.200669
 H          -6.477010      -18.626902       -2.587804
 H          -7.483293      -22.565418       -1.911209
 H          -6.575445      -22.801659       -3.384688
 H          -8.940949      -19.111036       -3.110941
 H          -9.035048      -20.192678       -1.787355
 H          -8.682654      -21.532730       -3.882972
 H          -7.224905      -20.543919       -4.161570
