20
 generated by VMD
 C         -30.176714      -92.431824      -25.715141
 N         -29.386547      -92.342438      -24.836498
 H         -32.261223      -90.136879      -26.978031
 H         -30.808525      -92.354202      -26.535854
 C         -33.229313      -90.165672      -27.386703
 C         -34.140457      -91.364868      -27.153454
 C         -33.389091      -89.216820      -28.495312
 C         -35.489620      -91.269844      -27.733690
 C         -34.646999      -89.271553      -29.249039
 C         -35.428799      -90.673096      -29.156427
 H         -33.995865      -91.551582      -26.107376
 H         -33.486008      -92.192574      -27.475245
 H         -33.188175      -88.186569      -28.404854
 H         -32.668438      -89.555260      -29.246874
 H         -36.098377      -90.611023      -26.984310
 H         -35.999527      -92.216156      -27.745173
 H         -34.577374      -88.850410      -30.257614
 H         -35.375839      -88.653381      -28.719000
 H         -36.467396      -90.838257      -29.513010
 H         -34.772194      -91.353447      -29.785820
