20
 generated by VMD
 C         -33.660599      -96.316475      -25.240507
 N         -32.839298      -97.093735      -24.963888
 H         -34.712597      -93.636658      -27.281399
 H         -34.366150      -95.732796      -25.668831
 C         -34.843857      -93.385857      -28.354906
 C         -35.955078      -93.957954      -29.211458
 C         -33.594273      -93.275993      -29.219944
 C         -36.174690      -93.045616      -30.502932
 C         -33.744102      -92.600372      -30.556391
 C         -34.989235      -92.977615      -31.345633
 H         -36.940746      -93.927521      -28.653160
 H         -35.780796      -95.047920      -29.446604
 H         -32.735588      -92.819992      -28.653683
 H         -33.256104      -94.329124      -29.304293
 H         -36.622154      -92.142509      -30.168343
 H         -37.025974      -93.553917      -31.099539
 H         -32.859684      -92.888817      -31.186005
 H         -33.821266      -91.482109      -30.354033
 H         -35.243824      -92.234016      -32.009823
 H         -34.966534      -93.875130      -31.933912
