20
 generated by VMD
 C         -41.985123     -101.749130      -33.581566
 N         -40.882362     -101.824799      -33.886532
 H         -38.879841     -103.641701      -32.967281
 H         -43.051346     -101.793060      -33.189583
 C         -38.073009     -103.656090      -32.223934
 C         -36.849773     -103.618500      -33.136147
 C         -37.873707     -104.165833      -30.856674
 C         -35.821823     -102.818909      -32.377235
 C         -36.621414     -103.693916      -30.132000
 C         -35.499325     -103.500465      -31.081657
 H         -36.940884     -103.294113      -34.164223
 H         -36.560555     -104.706558      -33.171692
 H         -38.688366     -103.880630      -30.217798
 H         -37.960426     -105.328362      -30.855083
 H         -36.173893     -101.767082      -32.150795
 H         -34.822624     -102.714134      -32.983017
 H         -36.336723     -104.356064      -29.220512
 H         -36.810123     -102.756966      -29.705101
 H         -34.689613     -102.800377      -30.601631
 H         -35.023891     -104.478951      -31.170927
