20
 generated by VMD
 C         -22.769026      -52.419594      -12.063634
 N         -23.520235      -52.458103      -11.165054
 H         -19.981884      -53.394505      -14.310348
 H         -22.044853      -52.461098      -13.160522
 C         -19.004599      -53.150101      -13.930948
 C         -18.200003      -52.082973      -14.653657
 C         -18.124540      -54.152374      -13.243815
 C         -16.676138      -52.302834      -14.493992
 C         -17.016253      -53.521400      -12.357743
 C         -16.218750      -52.439938      -13.049871
 H         -18.511963      -51.127872      -14.233418
 H         -18.385447      -52.107666      -15.785407
 H         -18.770304      -54.801365      -12.563676
 H         -17.747467      -54.829487      -14.003655
 H         -16.127623      -51.445747      -14.862039
 H         -16.271606      -53.149212      -15.037577
 H         -16.356407      -54.337841      -12.049397
 H         -17.502174      -53.106682      -11.423198
 H         -16.247402      -51.443142      -12.552283
 H         -15.140920      -52.663467      -12.908973
