20
 generated by VMD
 C         -44.751434     -122.356857      -35.804306
 N         -44.739899     -122.919914      -34.799122
 H         -45.201710     -122.815727      -39.198357
 H         -44.857307     -121.755516      -36.707932
 C         -44.963837     -121.842232      -39.477993
 C         -43.551563     -121.388779      -39.610237
 C         -46.117332     -120.810387      -39.672260
 C         -43.281879     -120.177391      -40.623501
 C         -45.690353     -119.576569      -40.494656
 C         -44.271873     -119.076683      -40.345196
 H         -42.898331     -122.160759      -40.065468
 H         -43.145096     -121.286011      -38.651459
 H         -46.951996     -121.446014      -39.950150
 H         -46.304626     -120.388420      -38.657642
 H         -43.419552     -120.613548      -41.678181
 H         -42.237419     -119.755241      -40.386021
 H         -46.516003     -118.878044      -40.307693
 H         -45.715782     -120.101364      -41.523964
 H         -44.164722     -118.363632      -41.132229
 H         -44.107040     -118.574112      -39.390751
