20
 generated by VMD
 C         -50.061344     -131.759430      -46.697708
 N         -50.151001     -131.952942      -47.888977
 H         -48.768719     -131.477737      -43.843578
 H         -50.268570     -131.177383      -45.794697
 C         -48.812084     -132.214050      -43.079197
 C         -49.631023     -133.532532      -43.438805
 C         -48.706169     -131.902832      -41.660583
 C         -49.107548     -134.742798      -42.615578
 C         -48.117889     -133.027084      -40.908134
 C         -48.856560     -134.352936      -41.168900
 H         -49.471237     -133.627487      -44.509365
 H         -50.683575     -133.296600      -43.273682
 H         -48.129536     -130.922318      -41.633522
 H         -49.744984     -131.753738      -41.354393
 H         -48.259937     -135.037262      -43.210152
 H         -49.903847     -135.487717      -42.698463
 H         -48.297050     -132.817764      -39.908653
 H         -47.107216     -133.300278      -41.183754
 H         -48.383614     -135.279388      -40.673084
 H         -49.747669     -134.400421      -40.548885
