20
 generated by VMD
 C         -59.303051     -158.638031      -57.383949
 N         -58.578243     -158.220642      -58.214905
 H         -59.926186     -158.892105      -53.877941
 H         -59.902203     -159.012085      -56.586369
 C         -59.734928     -159.858841      -53.406834
 C         -58.438675     -160.072098      -52.627007
 C         -60.688461     -160.944702      -53.569023
 C         -58.776814     -160.573318      -51.177849
 C         -60.838470     -161.773834      -52.320049
 C         -59.664665     -161.820465      -51.316219
 H         -57.861877     -159.081589      -52.589424
 H         -57.897060     -160.798706      -53.245365
 H         -61.714985     -160.739456      -53.870449
 H         -60.214058     -161.506302      -54.439323
 H         -59.268745     -159.817642      -50.537357
 H         -57.986763     -160.931046      -50.705818
 H         -61.095444     -162.831787      -52.556911
 H         -61.663605     -161.246887      -51.838955
 H         -60.147614     -162.060135      -50.367290
 H         -59.059048     -162.687408      -51.472656
