20
 generated by VMD
 C         -40.788364     -103.865295      -37.308071
 N         -40.528900     -104.676506      -36.533905
 H         -39.933689     -106.282967      -34.296040
 H         -41.148911     -102.940063      -37.771217
 C         -39.335934     -106.881844      -33.516937
 C         -38.168190     -106.320534      -32.873428
 C         -39.911484     -108.337593      -33.261120
 C         -38.009338     -106.897102      -31.491476
 C         -39.546719     -108.818993      -31.843678
 C         -38.182724     -108.426750      -31.539728
 H         -38.222637     -105.248795      -33.004898
 H         -37.281269     -106.586876      -33.472321
 H         -40.968788     -108.188835      -33.575222
 H         -39.518898     -108.946930      -34.053246
 H         -38.801334     -106.535873      -30.813770
 H         -36.993893     -106.631935      -31.093435
 H         -39.714264     -109.927818      -31.765860
 H         -40.250038     -108.468185      -31.159481
 H         -37.965771     -108.781815      -30.597843
 H         -37.360733     -108.837440      -32.227913
