20
 generated by VMD
 C         -10.834463      -36.928726       -8.115025
 N         -10.090436      -36.814617       -7.314354
 H         -12.917048      -39.013962       -8.062432
 H         -14.201445      -38.995987       -6.914011
 C         -13.905165      -39.482868       -7.845525
 C         -13.723164      -40.960220       -7.732841
 C         -14.898387      -39.073906       -8.936060
 C         -14.993116      -41.735912       -7.611982
 C         -16.166121      -39.837997       -8.797093
 C         -16.025805      -41.347889       -8.704262
 H         -13.127382      -41.224258       -6.880223
 H         -13.220411      -41.306271       -8.605428
 H         -15.132536      -38.013260       -8.889423
 H         -14.434927      -39.220669       -9.902626
 H         -15.357607      -41.490379       -6.626352
 H         -14.872274      -42.841873       -7.591388
 H         -16.777145      -39.548058       -9.616749
 H         -16.613564      -39.418472       -7.851829
 H         -16.985466      -41.713055       -8.356177
 H         -15.765487      -41.817154       -9.624104
