20
 generated by VMD
 C         -70.787231     -198.797775      -64.373543
 N         -70.178627     -198.451202      -65.291191
 H         -72.244049     -196.421097      -66.780701
 H         -71.067589     -199.198196      -63.428196
 C         -73.177132     -195.916580      -67.037476
 C         -73.271896     -194.468170      -66.593033
 C         -74.001221     -196.422546      -68.194817
 C         -73.228798     -193.524017      -67.719810
 C         -74.793465     -195.263794      -68.790413
 C         -74.014687     -193.981232      -69.015213
 H         -72.618294     -194.123795      -65.803490
 H         -74.223068     -194.374420      -66.094070
 H         -73.337494     -196.870529      -68.939163
 H         -74.652626     -197.175110      -67.647987
 H         -72.224930     -193.185318      -67.996925
 H         -73.653664     -192.551651      -67.384621
 H         -75.672333     -195.272522      -68.188278
 H         -75.116028     -195.588516      -69.763107
 H         -73.403206     -194.050003      -69.870163
 H         -74.931686     -193.292542      -69.359238
