20
 generated by VMD
 C         -20.615530      -64.427513      -16.864830
 N         -19.572380      -64.139664      -16.426287
 H         -24.292759      -63.179764      -17.522234
 H         -21.373295      -64.852348      -17.369587
 C         -24.480272      -64.237076      -17.863094
 C         -24.610409      -64.627342      -19.285980
 C         -24.633011      -65.310371      -16.675671
 C         -24.783205      -66.119637      -19.721880
 C         -24.582911      -66.735245      -17.331614
 C         -25.475929      -66.827377      -18.576834
 H         -23.740015      -64.203918      -19.703598
 H         -25.563314      -64.205681      -19.714251
 H         -23.786480      -65.105072      -15.925717
 H         -25.707741      -65.156158      -16.215614
 H         -23.764309      -66.526466      -19.938839
 H         -25.323620      -66.077080      -20.711195
 H         -24.982618      -67.506042      -16.660854
 H         -23.525320      -67.053894      -17.567780
 H         -25.459494      -67.907005      -18.783506
 H         -26.607941      -66.646423      -18.403658
