20
 generated by VMD
 C         -52.550159     -146.470627      -44.258289
 N         -51.715054     -146.562485      -45.092018
 H         -54.238071     -145.850891      -47.163891
 H         -53.248722     -146.271530      -43.469856
 C         -53.996109     -145.096863      -47.852375
 C         -52.883324     -144.995514      -48.857239
 C         -54.781548     -143.932343      -47.569675
 C         -53.415627     -144.339264      -50.132549
 C         -55.309082     -143.391174      -48.858761
 C         -54.283817     -143.072159      -49.898037
 H         -52.504211     -145.935318      -49.209129
 H         -52.091995     -144.459763      -48.493877
 H         -55.656860     -144.343750      -46.985760
 H         -54.052010     -143.202148      -46.983681
 H         -54.152065     -145.025085      -50.560520
 H         -52.644089     -144.080444      -50.828579
 H         -55.597351     -142.408478      -48.613083
 H         -56.161457     -144.032654      -49.206734
 H         -54.651993     -142.695297      -50.787148
 H         -53.693367     -142.210419      -49.578346
