20
 generated by VMD
 C         -29.339693      -80.081749      -26.638062
 N         -29.867048      -80.177292      -27.691483
 H         -28.405752      -82.602676      -24.644407
 H         -28.924093      -79.995972      -25.609785
 C         -29.275742      -82.956360      -24.208540
 C         -29.276089      -82.829315      -22.745897
 C         -29.989557      -84.099556      -24.841618
 C         -30.686687      -82.867722      -22.238089
 C         -31.449043      -84.214714      -24.395321
 C         -31.572752      -84.156281      -22.803904
 H         -28.925833      -81.818016      -22.453150
 H         -28.780468      -83.663101      -22.239964
 H         -29.776598      -83.899055      -25.954277
 H         -29.481852      -85.024017      -24.570040
 H         -31.092112      -81.944565      -22.630751
 H         -30.680035      -82.965591      -21.095510
 H         -31.888840      -85.127411      -24.985630
 H         -31.912203      -83.317223      -24.787434
 H         -32.667835      -84.295441      -22.622652
 H         -31.047590      -85.109268      -22.456413
