20
 generated by VMD
 C          -1.145277       -9.905327        1.196479
 N          -1.862115       -9.794481        0.318854
 H          -3.154064      -12.081573        1.340440
 H          -4.046927      -12.195911        2.843034
 C          -3.772182      -12.766189        1.931680
 C          -3.095112      -14.022532        2.432536
 C          -5.142450      -12.956497        1.253922
 C          -4.010194      -14.858095        3.317235
 C          -5.986855      -13.941335        2.110999
 C          -5.278952      -15.206791        2.590894
 H          -2.172076      -13.648264        2.968468
 H          -2.673812      -14.603134        1.539463
 H          -5.717433      -12.055477        1.128858
 H          -5.024148      -13.467296        0.291514
 H          -4.201169      -14.294189        4.297502
 H          -3.372773      -15.717724        3.621720
 H          -6.892603      -14.242327        1.584030
 H          -6.349926      -13.392109        2.989376
 H          -5.948174      -15.757036        3.249562
 H          -5.083021      -15.852566        1.778567
