20
 generated by VMD
 C         -51.150032     -130.822052      -46.197620
 N         -50.370304     -130.178925      -46.828857
 H         -48.195850     -132.136856      -44.421158
 H         -51.498024     -131.393524      -45.306263
 C         -48.067966     -132.397781      -43.408657
 C         -48.585327     -133.786713      -42.993446
 C         -48.078850     -131.168930      -42.458912
 C         -48.242367     -133.998398      -41.477390
 C         -47.875557     -131.586044      -40.991505
 C         -48.619965     -132.825500      -40.615593
 H         -48.025593     -134.450363      -43.677547
 H         -49.672050     -133.797272      -43.167198
 H         -47.381252     -130.392822      -42.723270
 H         -49.105347     -130.723129      -42.293079
 H         -47.180077     -134.219086      -41.463879
 H         -48.720852     -134.940323      -41.237907
 H         -48.234364     -130.785141      -40.168629
 H         -46.800377     -131.579102      -40.836647
 H         -48.264282     -133.075699      -39.595951
 H         -49.762302     -132.819916      -40.768768
