20
 generated by VMD
 C         -79.835556     -205.386261      -71.209702
 N         -80.194893     -206.478760      -71.500534
 H         -77.239799     -202.982605      -70.571678
 H         -79.430725     -204.326431      -71.259140
 C         -76.260338     -203.310516      -70.340302
 C         -75.110626     -202.320114      -70.292465
 C         -75.896553     -204.761658      -70.112305
 C         -73.901169     -203.048599      -70.673912
 C         -74.678551     -205.004776      -69.151146
 C         -73.631325     -203.997086      -69.503952
 H         -75.049904     -201.919540      -69.266235
 H         -75.209389     -201.497131      -71.022751
 H         -76.863083     -205.218216      -69.663368
 H         -75.666512     -205.377213      -71.080811
 H         -73.087334     -202.312912      -70.856812
 H         -73.997742     -203.561050      -71.646812
 H         -74.388145     -205.992432      -69.213104
 H         -74.962265     -204.852753      -68.062584
 H         -73.544792     -203.479462      -68.564072
 H         -72.637215     -204.434723      -69.625580
