20
 generated by VMD
 C         -70.737442     -181.450241      -64.190216
 N         -70.436508     -182.322861      -63.527512
 H         -68.241638     -181.294937      -61.148277
 H         -71.012260     -180.584274      -64.705193
 C         -67.375343     -180.764023      -60.742264
 C         -66.288086     -181.773193      -60.433880
 C         -67.367287     -179.317993      -60.497108
 C         -64.957962     -181.146347      -60.858227
 C         -65.978798     -178.739212      -60.813774
 C         -64.810036     -179.690125      -60.331974
 H         -66.452316     -182.708359      -60.899864
 H         -66.200165     -181.805298      -59.342316
 H         -68.126648     -178.729828      -61.054115
 H         -67.561356     -179.072449      -59.402145
 H         -64.720451     -181.084915      -61.971001
 H         -64.134964     -181.765030      -60.361298
 H         -65.810425     -177.713165      -60.463142
 H         -65.885292     -178.569534      -61.919582
 H         -63.867031     -179.225739      -60.558510
 H         -64.944298     -179.804230      -59.227520
