20
 generated by VMD
 C          -7.314616      -23.446272        1.725903
 N          -7.465683      -22.657881        2.501593
 H          -8.879402      -23.509119       -1.443407
 H          -9.424334      -22.525318       -2.729712
 C          -8.532585      -22.830997       -2.162859
 C          -7.658801      -23.544243       -3.134635
 C          -7.786465      -21.701237       -1.530552
 C          -6.997236      -22.583740       -4.097305
 C          -7.135171      -20.746077       -2.459630
 C          -6.132284      -21.528387       -3.388696
 H          -8.297314      -24.330051       -3.644305
 H          -6.924471      -24.197922       -2.758736
 H          -8.482629      -21.020924       -0.976599
 H          -7.039620      -22.175262       -0.878747
 H          -7.745569      -22.078262       -4.718134
 H          -6.328897      -23.215870       -4.677031
 H          -6.505345      -20.076275       -1.833696
 H          -7.893704      -20.219837       -3.080318
 H          -5.833339      -20.800566       -4.132336
 H          -5.283680      -21.886036       -2.849906
