20
 generated by VMD
 C         -27.235552      -72.840683      -17.964432
 N         -27.977934      -73.343941      -17.222000
 H         -24.831779      -70.462990      -18.660957
 H         -26.445137      -72.395073      -18.505461
 C         -25.063770      -70.703911      -19.675158
 C         -24.485716      -71.916504      -20.217926
 C         -25.467714      -69.650597      -20.694441
 C         -25.272177      -72.389397      -21.454071
 C         -26.513741      -70.230774      -21.771769
 C         -25.922932      -71.469933      -22.429785
 H         -24.501225      -72.889442      -19.546600
 H         -23.453245      -71.787514      -20.547398
 H         -26.054562      -68.813652      -20.192692
 H         -24.643848      -69.126343      -21.162592
 H         -25.850973      -73.243355      -21.083227
 H         -24.511292      -72.881691      -22.124735
 H         -26.813023      -69.410141      -22.456341
 H         -27.495481      -70.474548      -21.318432
 H         -26.681400      -72.051010      -22.935863
 H         -25.257013      -71.039459      -23.218323
