20
 generated by VMD
 C         -12.191463      -30.908792       -8.425753
 N         -11.955028      -30.633272       -7.390592
 H         -11.627912      -34.826878       -7.874893
 H         -12.844640      -34.040405       -6.813677
 C         -11.875277      -34.674355       -6.798320
 C         -10.856870      -33.862621       -6.103358
 C         -12.144155      -36.039406       -6.151015
 C         -11.143494      -33.610115       -4.684083
 C         -12.385291      -35.792664       -4.657700
 C         -11.313973      -34.909416       -3.907162
 H         -10.714695      -32.963356       -6.630302
 H          -9.847756      -34.350807       -6.110357
 H         -12.967482      -36.515953       -6.690629
 H         -11.230891      -36.636139       -6.315794
 H         -12.094758      -33.075356       -4.610244
 H         -10.388186      -33.025246       -4.242540
 H         -12.492242      -36.669514       -4.123182
 H         -13.333326      -35.178902       -4.549215
 H         -11.560044      -34.803459       -2.860033
 H         -10.390900      -35.467190       -3.943359
