20
 generated by VMD
 C         -78.118904     -204.275894      -69.523087
 N         -79.053123     -203.703690      -69.990578
 H         -76.152084     -202.583267      -67.765640
 H         -77.325691     -204.714783      -68.833946
 C         -75.486633     -202.425812      -68.681816
 C         -75.685272     -201.163483      -69.349426
 C         -74.204979     -203.222305      -68.892555
 C         -74.872185     -200.910324      -70.576775
 C         -72.987465     -202.419769      -69.565361
 C         -73.393425     -201.242432      -70.444901
 H         -75.333893     -200.385330      -68.713531
 H         -76.797470     -200.927490      -69.519547
 H         -73.854805     -203.447632      -67.915604
 H         -74.491333     -204.041183      -69.588737
 H         -75.026802     -199.920914      -70.975021
 H         -75.280396     -201.557266      -71.345375
 H         -72.294952     -203.097717      -70.151245
 H         -72.381668     -201.948624      -68.690414
 H         -72.793549     -200.271912      -69.953278
 H         -73.009842     -201.349884      -71.473831
