20
 generated by VMD
 C         -60.151932     -156.226822      -55.122341
 N         -60.432446     -155.166199      -55.431145
 H         -59.971359     -157.606781      -51.830853
 H         -59.860062     -157.274231      -54.954079
 C         -58.888187     -157.500259      -52.112202
 C         -58.218548     -156.201553      -52.209965
 C         -58.025612     -158.680634      -51.943302
 C         -57.176655     -155.889893      -51.158451
 C         -57.014233     -158.341141      -50.791527
 C         -56.272041     -157.118210      -50.996582
 H         -58.857723     -155.368896      -52.076817
 H         -57.876148     -156.067963      -53.252312
 H         -58.471870     -159.610916      -51.615997
 H         -57.382786     -158.905426      -52.858063
 H         -57.317371     -155.446777      -50.171001
 H         -56.631027     -155.100357      -51.595360
 H         -56.371006     -159.201004      -50.600338
 H         -57.418594     -158.142258      -49.727375
 H         -55.404133     -156.932175      -50.227997
 H         -55.723927     -157.171677      -51.880520
