20
 generated by VMD
 C         -40.199394     -104.804718      -36.647015
 N         -39.469086     -104.054199      -37.131214
 H         -40.338013     -108.435471      -35.156723
 H         -40.993675     -105.386795      -36.199387
 C         -39.840923     -108.603989      -34.163509
 C         -38.713295     -107.733795      -33.766762
 C         -40.093468     -109.804245      -33.470619
 C         -38.892632     -107.504318      -32.242908
 C         -40.458241     -109.467873      -32.071236
 C         -39.209572     -108.693459      -31.398958
 H         -38.637901     -106.761208      -34.361408
 H         -37.749729     -108.408234      -33.870258
 H         -40.832558     -110.405235      -33.984295
 H         -39.221977     -110.517273      -33.360294
 H         -39.728519     -106.767906      -32.057507
 H         -38.057224     -107.016258      -31.759787
 H         -40.649300     -110.406212      -31.483183
 H         -41.377377     -108.845299      -32.152298
 H         -39.411694     -108.496880      -30.415699
 H         -38.260380     -109.433784      -31.400120
