20
 generated by VMD
 C         -41.911774     -101.964531      -33.676384
 N         -40.772461     -101.861229      -33.996750
 H         -39.025730     -103.859436      -32.790783
 H         -42.944122     -101.686638      -33.544556
 C         -38.126389     -103.783836      -32.160378
 C         -37.026878     -103.491058      -33.206070
 C         -37.916615     -104.394150      -30.914949
 C         -35.802902     -102.985718      -32.406063
 C         -36.793594     -103.669022      -30.131304
 C         -35.569378     -103.801605      -31.033401
 H         -37.338020     -102.643623      -33.886745
 H         -36.784786     -104.340363      -33.903358
 H         -38.681137     -104.421715      -30.220282
 H         -37.561859     -105.472633      -31.105204
 H         -35.943848     -101.934059      -32.320599
 H         -34.944016     -103.082481      -33.036076
 H         -36.599857     -104.258896      -29.180367
 H         -37.117001     -102.643890      -29.864334
 H         -34.614483     -103.421234      -30.653469
 H         -35.468964     -104.853050      -31.298979
