20
 generated by VMD
 C         -58.563198     -161.799942      -56.471294
 N         -57.966652     -160.866959      -56.082321
 H         -59.448673     -164.747803      -55.240704
 H         -59.147240     -162.615112      -56.828896
 C         -60.265106     -164.310043      -54.820770
 C         -60.022900     -163.666855      -53.561237
 C         -61.626053     -164.411682      -55.241226
 C         -60.738663     -162.308029      -53.381828
 C         -62.532516     -163.168961      -54.764458
 C         -62.128162     -162.490799      -53.450127
 H         -58.934349     -163.551117      -53.407303
 H         -60.146683     -164.354813      -52.652622
 H         -61.659122     -164.378998      -56.297234
 H         -62.100327     -165.390656      -54.993591
 H         -60.368813     -161.546646      -54.189182
 H         -60.304031     -161.947098      -52.440006
 H         -63.491829     -163.526367      -54.594585
 H         -62.515900     -162.379135      -55.559082
 H         -62.665276     -161.562317      -53.250519
 H         -62.324699     -163.277847      -52.662502
