20
 generated by VMD
 C         -59.308155     -158.318634      -56.200394
 N         -58.799740     -158.566788      -57.255993
 H         -60.674706     -157.945892      -52.890781
 H         -59.766129     -158.036957      -55.266918
 C         -60.060726     -158.841034      -52.998283
 C         -58.560860     -158.791901      -52.690075
 C         -60.617508     -160.218338      -53.247898
 C         -58.078888     -159.801102      -51.602619
 C         -60.128029     -161.214859      -52.237671
 C         -58.657608     -161.164703      -51.828674
 H         -58.193687     -157.821304      -52.447071
 H         -57.983688     -158.992706      -53.558937
 H         -61.673443     -160.185638      -53.346169
 H         -60.246990     -160.590790      -54.244858
 H         -58.566753     -159.456131      -50.636414
 H         -57.074169     -159.742844      -51.439991
 H         -60.312523     -162.247589      -52.700741
 H         -60.704292     -161.228470      -51.325836
 H         -58.580002     -161.821823      -50.944855
 H         -58.188046     -161.668716      -52.570007
