20
 generated by VMD
 C         -31.594080      -79.157356      -26.477898
 N         -30.927904      -78.218353      -26.587841
 H         -29.077496      -80.643188      -24.851803
 H         -32.295116      -79.912170      -26.064171
 C         -28.832844      -81.459343      -24.292463
 C         -27.617786      -81.390869      -23.264812
 C         -29.868258      -82.515953      -24.003901
 C         -28.188419      -81.167274      -21.952280
 C         -30.371946      -82.275375      -22.568209
 C         -29.254435      -82.365921      -21.561014
 H         -26.929981      -80.674393      -23.673897
 H         -27.059864      -82.309906      -23.427206
 H         -30.633898      -82.268021      -24.808468
 H         -29.571869      -83.564064      -24.146824
 H         -28.732767      -80.188248      -22.048910
 H         -27.466673      -81.138443      -21.198187
 H         -31.155491      -83.020370      -22.494551
 H         -30.917397      -81.226830      -22.569475
 H         -29.532669      -82.269089      -20.469580
 H         -28.802359      -83.386116      -21.873020
