20
 generated by VMD
 C         -40.933136     -100.904297      -32.848778
 N         -41.856918     -101.348022      -32.276848
 H         -38.535660     -102.932793      -32.401512
 H         -40.303928     -100.336319      -33.598701
 C         -37.541779     -102.778801      -31.932125
 C         -36.260433     -102.674103      -32.885525
 C         -37.249142     -102.974152      -30.476259
 C         -35.178032     -101.811111      -32.374302
 C         -36.320080     -101.785339      -30.126776
 C         -34.921005     -101.896019      -30.815214
 H         -36.395386     -102.273613      -33.885067
 H         -35.858292     -103.699158      -33.084373
 H         -38.304226     -102.901390      -30.024033
 H         -36.853745     -103.951515      -30.240448
 H         -35.369663     -100.723442      -32.447372
 H         -34.234806     -101.960274      -32.905132
 H         -36.040546     -101.583527      -29.153606
 H         -36.839184     -100.853981      -30.460905
 H         -34.245583     -101.032860      -30.446695
 H         -34.457336     -102.887260      -30.719162
