20
 generated by VMD
 C         -11.278855      -34.028969       -8.228797
 N         -10.828415      -33.892460       -9.268123
 H         -11.605315      -37.768002       -7.794962
 H         -12.586693      -37.193146       -6.479325
 C         -12.522869      -37.950939       -7.286560
 C         -12.463681      -39.275921       -6.599631
 C         -13.813234      -37.799030       -8.119296
 C         -13.734947      -39.625736       -5.831244
 C         -15.001776      -37.953228       -7.200701
 C         -15.023346      -39.268101       -6.502691
 H         -11.672775      -39.214966       -5.865230
 H         -12.365759      -40.098885       -7.299023
 H         -13.862177      -36.834278       -8.554498
 H         -13.724851      -38.619976       -8.889645
 H         -13.622060      -39.063976       -4.923653
 H         -13.750113      -40.711250       -5.658276
 H         -15.847960      -37.886295       -7.850424
 H         -15.092929      -37.029720       -6.501150
 H         -15.925259      -39.352962       -5.860549
 H         -15.152166      -40.033295       -7.317527
