20
 generated by VMD
 C         -30.866148      -92.799980      -26.267319
 N         -30.727259      -92.512299      -25.153233
 H         -32.477283      -90.062424      -26.397169
 H         -31.132887      -92.963181      -27.356409
 C         -33.168308      -90.413757      -27.196241
 C         -33.977219      -91.719360      -27.082720
 C         -33.264645      -89.592880      -28.460472
 C         -35.233364      -91.684387      -27.989183
 C         -34.621159      -89.755211      -29.292669
 C         -35.139023      -91.190323      -29.398506
 H         -34.412201      -91.830704      -26.053133
 H         -33.456715      -92.708855      -27.247488
 H         -33.170212      -88.529785      -28.111132
 H         -32.301960      -89.660614      -29.036657
 H         -36.157181      -91.288506      -27.472723
 H         -35.482845      -92.710175      -28.126959
 H         -34.354176      -89.351166      -30.234316
 H         -35.325794      -89.053467      -28.877132
 H         -36.056061      -91.059586      -29.954838
 H         -34.543293      -91.812820      -30.017235
