20
 generated by VMD
 C         -50.873024     -129.455750      -45.274429
 N         -50.937279     -129.871689      -44.148724
 H         -49.155819     -128.680908      -41.904030
 H         -50.836426     -129.319519      -46.327503
 C         -48.217251     -128.900330      -41.565643
 C         -47.877258     -130.263474      -41.073261
 C         -47.251331     -127.873352      -40.953007
 C         -46.442898     -130.703491      -41.317543
 C         -45.859177     -128.203827      -41.339142
 C         -45.500435     -129.671234      -40.883266
 H         -48.490112     -131.088440      -41.581837
 H         -48.021114     -130.339844      -40.059956
 H         -47.412975     -126.867798      -41.191925
 H         -47.461632     -127.920395      -39.788975
 H         -46.397530     -131.037598      -42.421314
 H         -46.103218     -131.690109      -40.882908
 H         -45.037315     -127.659760      -40.828007
 H         -45.626114     -128.147598      -42.396389
 H         -44.495041     -129.739029      -41.265579
 H         -45.429863     -129.647400      -39.760391
