20
 generated by VMD
 C          -3.589905      -20.042477        3.393037
 N          -4.053393      -19.099564        3.028109
 H          -5.323347      -19.577414        0.005710
 H          -6.057943      -21.105364       -0.618119
 C          -6.040485      -20.011049       -0.703561
 C          -5.690852      -19.528973       -2.176656
 C          -7.400399      -19.477268       -0.287939
 C          -6.834853      -19.749540       -3.220052
 C          -8.455150      -19.636143       -1.367389
 C          -8.111835      -19.021734       -2.719571
 H          -4.855079      -20.094921       -2.493002
 H          -5.437894      -18.449352       -2.065961
 H          -7.776435      -20.051260        0.624158
 H          -7.262804      -18.364384       -0.031959
 H          -7.084939      -20.831461       -3.254001
 H          -6.478882      -19.432346       -4.185664
 H          -9.329338      -19.171541       -0.968741
 H          -8.686977      -20.712193       -1.444264
 H          -8.903607      -19.296738       -3.437967
 H          -7.996648      -17.948723       -2.582726
