20
 generated by VMD
 C         -38.331181     -112.791779      -36.107666
 N         -37.387936     -112.349197      -36.626228
 H         -41.172691     -114.921532      -34.824047
 H         -39.183750     -113.260490      -35.532726
 C         -42.109314     -114.588310      -35.374729
 C         -42.078754     -114.670326      -36.894753
 C         -43.240963     -113.931747      -34.744209
 C         -43.370655     -114.827705      -37.593082
 C         -44.583553     -114.101082      -35.444042
 C         -44.485798     -114.020119      -36.906120
 H         -41.343433     -115.530884      -37.007938
 H         -41.665009     -113.677574      -37.096886
 H         -43.489697     -114.250099      -33.695061
 H         -42.893597     -112.891090      -34.566898
 H         -43.723156     -115.890457      -37.551956
 H         -43.383678     -114.500626      -38.619511
 H         -45.377251     -113.498329      -34.953049
 H         -45.164337     -114.992165      -35.211063
 H         -45.401291     -114.247330      -37.342171
 H         -44.197338     -113.004753      -37.143753
