20
 generated by VMD
 C         -20.824837      -52.293163       -9.593613
 N         -21.250206      -52.120834      -10.665822
 H         -19.103569      -49.785320      -11.503966
 H         -20.285826      -52.382843       -8.852592
 C         -18.160151      -49.921833      -12.012693
 C         -17.548424      -51.275143      -12.316975
 C         -17.343531      -48.700409      -12.257058
 C         -16.883854      -51.248989      -13.693405
 C         -16.537069      -48.693398      -13.558331
 C         -15.920494      -50.030010      -13.875215
 H         -18.306791      -52.039982      -12.371676
 H         -16.842779      -51.552475      -11.502371
 H         -18.011133      -47.826824      -12.248207
 H         -16.669653      -48.597660      -11.449454
 H         -17.653084      -51.236118      -14.470659
 H         -16.432383      -52.245647      -13.839869
 H         -15.830708      -47.792645      -13.698966
 H         -17.221125      -48.523956      -14.335166
 H         -15.566833      -50.037006      -14.947258
 H         -15.040145      -50.243027      -13.227145
