20
 generated by VMD
 C         -39.992962     -100.920372      -31.010574
 N         -40.404022      -99.977234      -31.487467
 H         -37.423294     -103.120201      -31.475904
 H         -39.697353     -101.967758      -30.744715
 C         -36.856285     -102.229591      -31.333872
 C         -36.276821     -101.682198      -32.527809
 C         -36.086712     -101.923622      -30.106878
 C         -36.153103     -100.155464      -32.446770
 C         -35.883614     -100.438782      -30.073652
 C         -35.127865      -99.859474      -31.318163
 H         -36.811268     -101.855316      -33.432961
 H         -35.298351     -102.135872      -32.797886
 H         -36.708641     -102.225822      -29.219778
 H         -35.107075     -102.304039      -30.144663
 H         -37.044518      -99.558670      -32.249939
 H         -35.834240      -99.801720      -33.444439
 H         -35.370853     -100.038277      -29.203175
 H         -36.904575      -99.932358      -30.054920
 H         -34.977261      -98.807030      -31.137836
 H         -34.162170     -100.340179      -31.512157
