20
 generated by VMD
 C         -40.850643     -103.970093      -37.004646
 N         -40.961906     -104.881805      -36.270920
 H         -39.476440     -105.423019      -33.850315
 H         -40.662056     -103.059616      -37.578022
 C         -39.125446     -106.294235      -33.450642
 C         -37.875031     -106.086296      -32.663185
 C         -39.731041     -107.685387      -33.441326
 C         -37.643764     -106.793976      -31.317633
 C         -39.504429     -108.319481      -32.012035
 C         -38.121387     -108.255226      -31.504513
 H         -37.663242     -105.048698      -32.552776
 H         -37.094009     -106.323624      -33.377655
 H         -40.775620     -107.637184      -33.791294
 H         -39.140102     -108.361435      -34.250443
 H         -38.109730     -106.213570      -30.496090
 H         -36.593410     -106.846443      -31.063631
 H         -39.912216     -109.284615      -32.047802
 H         -40.184139     -107.796204      -31.279177
 H         -38.073524     -108.672279      -30.421803
 H         -37.424294     -108.853699      -31.999420
