20
 generated by VMD
 C         -58.551792     -158.944870      -58.121666
 N         -58.978401     -159.508209      -57.181309
 H         -58.706181     -160.966125      -54.912815
 H         -58.172207     -158.369644      -58.973080
 C         -59.344746     -161.111893      -54.029030
 C         -58.646168     -161.345093      -52.739803
 C         -60.710243     -161.758926      -54.162907
 C         -59.611324     -161.349655      -51.503166
 C         -61.660641     -161.820419      -52.876591
 C         -60.863155     -162.313431      -51.671833
 H         -57.838749     -160.640091      -52.588833
 H         -57.983330     -162.320038      -52.776352
 H         -61.292801     -161.307526      -55.010086
 H         -60.576603     -162.871094      -54.439934
 H         -60.090790     -160.389191      -51.417767
 H         -58.978771     -161.626877      -50.618446
 H         -62.540382     -162.413605      -53.164989
 H         -61.994423     -160.755600      -52.708885
 H         -61.421009     -162.208847      -50.738487
 H         -60.437309     -163.377441      -51.709499
