20
 generated by VMD
 C         -66.685814     -190.492249      -66.523628
 N         -67.826538     -190.321869      -66.306679
 H         -70.502579     -190.657791      -66.462158
 H         -65.751526     -190.820404      -66.847939
 C         -71.260796     -190.347183      -65.693459
 C         -72.294655     -191.290695      -65.202156
 C         -70.609665     -189.380966      -64.817451
 C         -73.301949     -190.318268      -64.441406
 C         -71.541145     -188.721191      -63.792336
 C         -72.581955     -189.783768      -63.186771
 H         -71.808067     -191.960449      -64.388603
 H         -72.842911     -191.868286      -66.008743
 H         -69.817337     -189.947174      -64.200401
 H         -70.075096     -188.568390      -65.525070
 H         -74.185173     -190.817642      -64.155861
 H         -73.495102     -189.465881      -65.093185
 H         -72.080208     -187.883316      -64.346848
 H         -70.947121     -188.173248      -63.056190
 H         -72.223953     -190.708817      -62.579369
 H         -73.326065     -189.230072      -62.485359
