20
 generated by VMD
 C         -73.962555     -201.027298      -65.438873
 N         -72.814346     -201.090088      -65.364082
 H         -73.967941     -197.962555      -66.410812
 H         -74.963753     -200.703659      -65.349709
 C         -74.093010     -197.561905      -67.438133
 C         -74.581848     -196.099319      -67.603203
 C         -73.541458     -198.186050      -68.700089
 C         -73.466324     -195.419235      -68.474480
 C         -73.708153     -197.401215      -69.977234
 C         -73.448532     -195.929169      -69.949867
 H         -74.656586     -195.528488      -66.637550
 H         -75.514603     -196.286911      -68.093857
 H         -72.434479     -198.206741      -68.492668
 H         -73.889084     -199.204269      -68.842583
 H         -72.511436     -195.486420      -67.910942
 H         -73.685989     -194.344498      -68.436607
 H         -74.795532     -197.429184      -70.156525
 H         -73.235878     -197.781891      -70.814148
 H         -72.454811     -195.593781      -70.392593
 H         -74.148262     -195.330627      -70.605080
