20
 generated by VMD
 C         -41.006653     -101.367706      -32.703072
 N         -42.033710     -101.517586      -33.259666
 H         -38.568752     -103.253296      -32.402187
 H         -40.109600     -101.533501      -32.066708
 C         -37.724049     -102.725571      -31.975756
 C         -36.555626     -102.638603      -32.939495
 C         -37.438831     -103.118324      -30.479326
 C         -35.144691     -102.226707      -32.356197
 C         -36.307079     -102.225136      -30.087687
 C         -35.014576     -102.606445      -30.917101
 H         -36.867466     -101.883507      -33.709579
 H         -36.328861     -103.630547      -33.448563
 H         -38.289551     -102.855705      -29.825193
 H         -37.268997     -104.163818      -30.498693
 H         -34.970284     -101.100418      -32.519836
 H         -34.279495     -102.735985      -32.872875
 H         -36.153824     -102.404800      -28.993221
 H         -36.304890     -101.129211      -30.238319
 H         -33.970268     -102.206001      -30.644703
 H         -34.825687     -103.697693      -30.827543
