20
 generated by VMD
 C         -12.997382      -43.338554       -6.831633
 N         -12.828564      -42.243504       -6.947282
 H         -14.648885      -43.875587       -8.413080
 H         -14.675569      -42.618359       -9.686148
 C         -15.108746      -43.489166       -9.336878
 C         -16.555885      -43.236454       -8.994111
 C         -14.939286      -44.497673      -10.435923
 C         -17.151981      -42.555252      -10.236542
 C         -15.530818      -43.863308      -11.727273
 C         -16.974398      -43.385216      -11.488754
 H         -16.605186      -42.521183       -8.145975
 H         -17.097197      -44.141983       -8.670728
 H         -13.900471      -44.710217      -10.596553
 H         -15.554351      -45.386845      -10.297105
 H         -16.759905      -41.522713      -10.347299
 H         -18.257582      -42.502350      -10.076149
 H         -15.491749      -44.778240      -12.436436
 H         -14.918777      -43.115120      -12.163985
 H         -17.459452      -42.871372      -12.317304
 H         -17.556267      -44.282154      -11.365822
