20
 generated by VMD
 C         -57.705280     -164.337753      -56.657429
 N         -57.268917     -163.392426      -57.194275
 H         -59.679768     -164.755646      -54.276093
 H         -58.266258     -165.161346      -56.182659
 C         -60.811714     -164.799683      -54.491402
 C         -61.820530     -165.624084      -53.695293
 C         -61.403454     -164.492050      -55.936417
 C         -63.238087     -165.061295      -53.708717
 C         -62.756897     -163.797211      -55.886951
 C         -63.700401     -164.766586      -55.171898
 H         -61.514221     -165.556442      -52.592606
 H         -61.851810     -166.641159      -54.112381
 H         -60.688297     -163.811447      -56.376549
 H         -61.352711     -165.471436      -56.563210
 H         -63.435528     -164.099823      -53.136490
 H         -63.974361     -165.755493      -53.171219
 H         -63.186504     -163.732483      -56.827232
 H         -62.849903     -162.836487      -55.240570
 H         -64.680290     -164.446045      -55.075050
 H         -63.688759     -165.658554      -55.702572
