20
 generated by VMD
 C         -47.322830     -138.587845      -45.707893
 N         -47.024734     -138.305374      -46.744232
 H         -50.669735     -138.326279      -44.439964
 H         -47.679798     -138.719269      -44.716599
 C         -51.573978     -138.522842      -45.005455
 C         -51.646545     -139.103302      -46.485313
 C         -52.799133     -138.156876      -44.286812
 C         -52.837570     -140.003998      -46.668560
 C         -53.892948     -139.256622      -44.399124
 C         -54.136848     -139.466171      -45.975994
 H         -50.752789     -139.625061      -46.799732
 H         -51.857418     -138.122284      -47.023628
 H         -52.483368     -137.998947      -43.281200
 H         -53.135128     -137.205872      -44.613640
 H         -52.608047     -141.013031      -46.232697
 H         -52.954041     -140.092728      -47.807274
 H         -54.918274     -138.857040      -44.063507
 H         -53.568886     -140.074921      -43.836670
 H         -54.973976     -140.322998      -46.246147
 H         -54.578701     -138.622055      -46.547157
