20
 generated by VMD
 C         -23.062767      -54.856651      -16.649235
 N         -23.729334      -55.229591      -15.822356
 H         -19.517534      -55.258579      -15.597792
 H         -22.180498      -54.870193      -17.338341
 C         -19.008368      -55.830009      -14.780317
 C         -19.326666      -55.725681      -13.267160
 C         -18.505989      -57.180874      -15.214928
 C         -20.183714      -56.983868      -12.809267
 C         -19.416801      -58.236599      -14.700747
 C         -19.378159      -58.232948      -13.279466
 H         -19.954233      -54.845749      -13.060816
 H         -18.377075      -55.722591      -12.641018
 H         -18.494492      -57.099297      -16.272867
 H         -17.459023      -57.302994      -14.754214
 H         -21.225035      -56.961014      -13.141156
 H         -20.273769      -56.978443      -11.701153
 H         -18.974632      -59.149353      -15.045280
 H         -20.443050      -58.198215      -15.035811
 H         -19.914778      -59.097694      -12.905108
 H         -18.372543      -58.290054      -12.799162
