20
 generated by VMD
 C         -29.268265      -80.164581      -26.713804
 N         -29.914013      -80.173683      -27.695038
 H         -28.568827      -82.411491      -24.763142
 H         -28.934982      -80.032486      -25.763353
 C         -29.269684      -82.950493      -24.177279
 C         -29.290268      -82.903816      -22.661423
 C         -29.972782      -84.142662      -24.816586
 C         -30.796949      -83.000031      -22.251703
 C         -31.451731      -84.106995      -24.419901
 C         -31.513275      -84.170555      -22.931408
 H         -28.843094      -81.963501      -22.388880
 H         -28.492025      -83.571304      -22.257395
 H         -30.058090      -84.160934      -25.941488
 H         -29.436258      -85.084175      -24.557678
 H         -31.415688      -82.091805      -22.508329
 H         -30.906904      -82.879105      -21.142218
 H         -32.021133      -85.069931      -24.681402
 H         -32.051414      -83.308037      -24.837940
 H         -32.502071      -84.068291      -22.484451
 H         -31.063395      -85.157249      -22.519917
