20
 generated by VMD
 C         -31.630173      -78.610283      -26.354687
 N         -31.202913      -77.936012      -27.230680
 H         -29.493095      -79.648811      -23.655163
 H         -31.942230      -79.081390      -25.475105
 C         -29.036169      -80.616676      -23.643963
 C         -27.620794      -80.749397      -23.321133
 C         -29.895874      -81.809738      -23.568457
 C         -27.608149      -81.013519      -21.826719
 C         -29.983223      -82.076622      -22.067778
 C         -28.486292      -82.254181      -21.492889
 H         -27.041462      -79.886238      -23.555233
 H         -27.000931      -81.551254      -23.746208
 H         -30.796963      -81.432663      -23.937923
 H         -29.580452      -82.770119      -24.120607
 H         -27.975855      -80.150452      -21.356884
 H         -26.580492      -81.266586      -21.485855
 H         -30.587221      -83.038155      -21.833179
 H         -30.523468      -81.277809      -21.514362
 H         -28.393539      -82.296600      -20.367586
 H         -28.135405      -83.229065      -21.860712
