20
 generated by VMD
 C         -13.007970      -28.698788       -5.854499
 N         -12.744654      -27.732615       -5.355860
 H         -11.534524      -31.078295       -3.439138
 H         -11.315803      -29.758305       -4.368504
 C         -10.691194      -30.486729       -3.796929
 C          -9.825000      -31.229818       -4.904902
 C          -9.968509      -29.775322       -2.700005
 C          -8.673911      -30.267820       -5.367260
 C          -8.712972      -29.024834       -3.091598
 C          -7.818480      -29.784521       -4.167769
 H         -10.418010      -31.588802       -5.820838
 H          -9.545818      -32.143929       -4.467275
 H         -10.712888      -29.149984       -2.196441
 H          -9.677603      -30.582096       -1.939060
 H          -9.037786      -29.371572       -5.870039
 H          -8.077997      -30.714184       -6.177852
 H          -8.091418      -28.720682       -2.203211
 H          -8.923891      -28.064167       -3.530001
 H          -7.185240      -29.033701       -4.530285
 H          -7.223416      -30.591051       -3.659664
