20
 generated by VMD
 C         -47.949524     -134.645813      -46.735683
 N         -47.953022     -134.301987      -47.837933
 H         -50.448238     -134.513672      -44.887798
 H         -47.839596     -134.818253      -45.701103
 C         -50.607819     -135.418564      -44.375114
 C         -51.047436     -136.599991      -45.197163
 C         -51.103405     -135.120056      -43.003937
 C         -51.041275     -137.854218      -44.340622
 C         -51.141724     -136.485992      -42.212914
 C         -51.751057     -137.579620      -42.982803
 H         -50.293907     -136.795670      -46.012375
 H         -51.993980     -136.593018      -45.618252
 H         -50.610550     -134.410645      -42.296883
 H         -52.073627     -134.707825      -43.198429
 H         -49.967014     -138.064468      -44.122944
 H         -51.400471     -138.829773      -44.786434
 H         -51.673607     -136.236984      -41.271317
 H         -50.117435     -136.797562      -41.976097
 H         -51.764812     -138.526993      -42.492752
 H         -52.842171     -137.276398      -43.248772
