20
 generated by VMD
 C         -50.639713     -129.984970      -45.076935
 N         -51.498734     -129.192215      -44.782986
 H         -49.115036     -129.549377      -42.788731
 H         -50.022152     -130.856216      -45.132671
 C         -48.242836     -129.650620      -42.083759
 C         -47.909519     -131.009277      -41.612984
 C         -47.501122     -128.427200      -41.591660
 C         -46.497585     -131.228943      -41.142509
 C         -46.051399     -128.813828      -41.240791
 C         -45.901604     -130.062378      -40.363091
 H         -48.143951     -131.637054      -42.418449
 H         -48.690891     -131.295731      -40.777775
 H         -47.307476     -127.583290      -42.330944
 H         -47.909355     -128.020844      -40.712219
 H         -45.921432     -131.319153      -42.132153
 H         -46.313194     -132.087631      -40.352467
 H         -45.546658     -128.071198      -40.699749
 H         -45.496281     -128.837509      -42.181492
 H         -44.908970     -130.294907      -40.017647
 H         -46.462147     -130.138260      -39.409458
