20
 generated by VMD
 C         -58.808147     -152.537354      -50.653160
 N         -59.889385     -152.952759      -50.331070
 H         -56.886642     -151.451660      -48.598660
 H         -57.867775     -152.117722      -51.073555
 C         -56.216625     -151.138519      -49.427479
 C         -55.470108     -152.314941      -50.073322
 C         -55.674484     -149.691406      -49.404709
 C         -54.599167     -151.771225      -51.137356
 C         -54.725227     -149.341019      -50.578838
 C         -53.750336     -150.442596      -50.842297
 H         -56.167011     -153.131042      -50.464272
 H         -54.833271     -152.797348      -49.333664
 H         -56.483494     -148.950119      -49.394753
 H         -55.179543     -149.548691      -48.379875
 H         -55.252941     -151.598511      -51.984383
 H         -53.876457     -152.530563      -51.484310
 H         -54.220554     -148.440430      -50.595581
 H         -55.473988     -149.245743      -51.519695
 H         -53.384014     -150.338226      -51.835484
 H         -53.065353     -150.697495      -49.994602
