20
 generated by VMD
 C         -60.882866     -154.502716      -51.250336
 N         -61.124897     -154.173050      -52.281605
 H         -57.297874     -154.146378      -52.961151
 H         -60.642731     -154.872757      -50.252884
 C         -56.773853     -153.634964      -52.153790
 C         -57.130062     -153.895401      -50.732136
 C         -55.540379     -152.774078      -52.389717
 C         -55.963276     -154.305191      -49.789585
 C         -54.345047     -153.079773      -51.401680
 C         -54.768822     -153.250488      -50.024761
 H         -57.814339     -154.706406      -50.601536
 H         -57.456570     -153.017517      -50.246086
 H         -55.191299     -153.027039      -53.434765
 H         -55.862789     -151.738831      -52.318871
 H         -55.561138     -155.347580      -50.051159
 H         -56.426891     -154.228760      -48.750748
 H         -53.583767     -152.229218      -51.590881
 H         -53.769684     -153.945633      -51.664555
 H         -53.914413     -153.579605      -49.544006
 H         -55.211685     -152.273392      -49.637154
