20
 generated by VMD
 C         -38.658234     -113.737473      -35.618908
 N         -37.988590     -114.667809      -35.701954
 H         -41.241859     -114.430389      -36.006142
 H         -39.317131     -112.847061      -35.721462
 C         -42.266098     -114.578194      -36.313595
 C         -42.479050     -114.567924      -37.805359
 C         -43.475105     -114.362755      -35.394188
 C         -43.711464     -115.484016      -38.240322
 C         -44.655861     -115.281578      -35.785404
 C         -44.875408     -115.280327      -37.241886
 H         -41.555176     -114.989845      -38.394768
 H         -42.678551     -113.505638      -38.156723
 H         -43.217075     -114.496033      -34.277809
 H         -43.697517     -113.245201      -35.400501
 H         -43.533966     -116.539536      -38.082275
 H         -44.110023     -115.365677      -39.223648
 H         -45.463379     -115.053963      -35.016159
 H         -44.422150     -116.393105      -35.480873
 H         -45.593639     -115.999573      -37.682114
 H         -45.224888     -114.338989      -37.472275
