20
 generated by VMD
 C         -22.096361      -52.236637      -11.481629
 N         -21.928190      -52.807705      -10.496313
 H         -19.985321      -52.251392      -14.261623
 H         -22.382410      -51.762794      -12.485707
 C         -18.916912      -52.193802      -13.848457
 C         -17.904772      -51.620094      -14.857956
 C         -18.590126      -52.124207      -12.396929
 C         -16.468168      -52.118057      -14.565565
 C         -17.181059      -51.549896      -12.096762
 C         -16.167158      -52.185520      -13.049773
 H         -17.843212      -50.506268      -14.864980
 H         -18.113905      -51.967487      -15.824634
 H         -19.296732      -51.546707      -11.795968
 H         -18.621330      -53.222893      -12.059305
 H         -15.827318      -51.313248      -14.965431
 H         -16.100697      -53.019691      -15.083530
 H         -16.953123      -51.728584      -11.003373
 H         -17.148882      -50.536724      -12.242105
 H         -15.162398      -51.817062      -12.857225
 H         -16.023439      -53.195480      -12.687782
