20
 generated by VMD
 C         -58.494354     -160.054031      -57.002190
 N         -58.557045     -159.907700      -58.196098
 H         -58.708714     -162.734985      -54.966904
 H         -58.503429     -160.132980      -55.923203
 C         -59.540485     -162.604141      -54.253593
 C         -59.252693     -162.791092      -52.757458
 C         -60.952721     -162.833282      -54.746815
 C         -60.265724     -162.010056      -51.751640
 C         -61.961880     -162.061157      -53.798233
 C         -61.683887     -162.375488      -52.280659
 H         -58.220470     -162.447449      -52.609974
 H         -59.480217     -163.919373      -52.698090
 H         -61.070118     -162.644592      -55.773769
 H         -61.150433     -163.936737      -54.571438
 H         -60.210892     -160.908569      -51.579430
 H         -60.108265     -162.393875      -50.792255
 H         -62.931019     -162.284088      -54.199802
 H         -61.861523     -160.997833      -53.811440
 H         -62.377422     -161.823181      -51.704205
 H         -61.793877     -163.476135      -52.055183
