20
 generated by VMD
 C         -62.371460     -172.326965      -54.969627
 N         -61.450710     -172.940857      -55.266319
 H         -61.635971     -171.059753      -58.415047
 H         -63.236309     -171.890320      -54.530212
 C         -62.484905     -170.355988      -58.554363
 C         -62.426231     -168.920120      -57.927330
 C         -63.796040     -170.906021      -58.138660
 C         -63.660305     -168.032852      -58.405605
 C         -64.977730     -170.055115      -58.628956
 C         -64.922249     -168.692184      -57.987270
 H         -61.581886     -168.431915      -58.194881
 H         -62.429222     -168.976379      -56.719486
 H         -64.038147     -171.834671      -58.555397
 H         -63.800636     -171.013199      -57.106506
 H         -63.533848     -167.933304      -59.507133
 H         -63.448101     -167.001495      -58.105724
 H         -65.981018     -170.473007      -58.335522
 H         -65.118759     -169.880020      -59.795883
 H         -65.728470     -168.193222      -58.425198
 H         -65.139221     -168.806213      -56.916409
