20
 generated by VMD
 C         -32.612499      -93.017548      -25.671698
 N         -32.807884      -94.191277      -25.640827
 H         -33.469906      -94.774376      -28.495611
 H         -32.409763      -92.004715      -25.740480
 C         -34.139862      -94.089043      -29.035011
 C         -35.425537      -93.530190      -28.380577
 C         -33.845894      -93.309578      -30.340569
 C         -35.275776      -92.087067      -27.953854
 C         -33.492245      -91.820175      -29.909323
 C         -34.627632      -91.235588      -29.058670
 H         -35.617157      -94.328094      -27.666002
 H         -36.200142      -93.625595      -29.125994
 H         -32.944588      -93.609360      -30.835176
 H         -34.721363      -93.434677      -31.025072
 H         -34.560192      -92.145477      -27.115595
 H         -36.211441      -91.739449      -27.542830
 H         -33.503155      -91.073898      -30.735924
 H         -32.521805      -91.804802      -29.462395
 H         -34.398712      -90.229523      -28.661806
 H         -35.493752      -90.910851      -29.704912
