20
 generated by VMD
 C         -60.211758     -156.495316      -55.733959
 N         -60.838005     -155.556656      -55.935848
 H         -59.821095     -157.776093      -53.027840
 H         -59.645523     -157.334549      -55.307758
 C         -58.738297     -157.967697      -52.708935
 C         -57.763218     -156.781830      -52.548817
 C         -58.392525     -159.331314      -52.190098
 C         -57.333141     -156.574036      -51.150532
 C         -57.798050     -159.084686      -50.700382
 C         -56.738811     -157.900650      -50.563019
 H         -58.357285     -155.961777      -52.989834
 H         -56.925282     -156.698441      -53.302773
 H         -59.230316     -160.021332      -52.300808
 H         -57.517242     -159.744965      -52.798119
 H         -58.144630     -156.238617      -50.594643
 H         -56.503498     -155.918945      -51.026150
 H         -57.349632     -159.984528      -50.180256
 H         -58.739479     -158.733490      -50.200397
 H         -56.637753     -157.624496      -49.521843
 H         -55.765343     -158.091782      -51.101727
