20
 generated by VMD
 C         -13.903934      -28.751242       -7.130838
 N         -13.259083      -28.905804       -8.031317
 H         -11.682380      -30.419130       -4.959585
 H         -10.108900      -29.955154       -4.095979
 C         -10.811423      -30.781948       -4.438682
 C          -9.984594      -31.529779       -5.460118
 C         -11.011155      -31.730450       -3.212516
 C          -8.647213      -31.998327       -5.042022
 C          -9.612537      -32.169197       -2.711573
 C          -8.828838      -32.840332       -3.817873
 H          -9.951235      -30.797289       -6.278455
 H         -10.529897      -32.335361       -5.860259
 H         -11.580484      -31.231077       -2.467691
 H         -11.540064      -32.601238       -3.590254
 H          -8.017213      -31.133556       -4.774791
 H          -8.108356      -32.595112       -5.796508
 H          -9.650419      -32.897457       -1.872877
 H          -9.006461      -31.329683       -2.365829
 H          -7.838244      -33.148132       -3.420831
 H          -9.413743      -33.768364       -4.186670
