20
 generated by VMD
 C         -58.455002     -160.020187      -57.016262
 N         -58.583572     -159.898880      -58.188385
 H         -58.712906     -163.044891      -54.833145
 H         -58.300816     -160.213516      -55.956589
 C         -59.543274     -162.754105      -54.170448
 C         -59.344799     -162.937561      -52.716805
 C         -60.936752     -162.853134      -54.665600
 C         -60.278702     -162.112534      -52.002316
 C         -61.971878     -162.186691      -53.803783
 C         -61.737137     -162.284775      -52.321068
 H         -58.343880     -162.501907      -52.542110
 H         -59.527451     -164.080002      -52.507763
 H         -60.988651     -162.399094      -55.625690
 H         -61.161201     -163.937225      -54.804665
 H         -60.088036     -161.004532      -52.236698
 H         -60.147430     -162.102097      -50.958736
 H         -62.936359     -162.539215      -54.091434
 H         -62.022213     -161.157639      -54.140606
 H         -62.289501     -161.515060      -51.817539
 H         -62.032562     -163.306854      -51.899921
