20
 generated by VMD
 C         -22.639133      -52.544273      -12.018147
 N         -23.773222      -52.388264      -11.768867
 H         -19.887684      -53.976727      -14.498306
 H         -21.354540      -52.494240      -11.804950
 C         -18.897152      -53.621178      -14.015290
 C         -18.387613      -52.244347      -14.452651
 C         -18.023411      -54.626675      -13.414518
 C         -16.877548      -52.075775      -14.343006
 C         -17.268467      -53.825428      -12.417133
 C         -16.290468      -52.895298      -13.204323
 H         -18.900530      -51.431480      -13.943365
 H         -18.759825      -52.136650      -15.522266
 H         -18.683620      -55.423599      -12.979093
 H         -17.272627      -55.029900      -14.057920
 H         -16.541212      -51.050888      -14.208547
 H         -16.459785      -52.387577      -15.288476
 H         -16.659164      -54.528275      -11.875147
 H         -17.931679      -53.294556      -11.711085
 H         -15.679842      -52.198185      -12.566412
 H         -15.554039      -53.551350      -13.760044
