20
 generated by VMD
 C         -50.847691     -129.744202      -46.112896
 N         -50.835838     -130.369720      -45.164646
 H         -48.298172     -131.605362      -44.365036
 H         -50.660828     -128.974579      -46.891895
 C         -47.969673     -131.585983      -43.366867
 C         -48.278049     -132.891998      -42.427650
 C         -47.924900     -130.395889      -42.520096
 C         -47.525410     -132.854965      -41.111649
 C         -47.229042     -130.423920      -41.174477
 C         -47.764126     -131.558868      -40.391880
 H         -48.126335     -133.763794      -43.081970
 H         -49.348000     -132.916000      -42.049267
 H         -47.469696     -129.524490      -43.097549
 H         -49.010342     -130.025589      -42.315990
 H         -46.472511     -133.055115      -41.347588
 H         -47.845242     -133.690140      -40.456924
 H         -47.420452     -129.557281      -40.506241
 H         -46.119431     -130.518341      -41.159897
 H         -47.271946     -131.665085      -39.465336
 H         -48.854782     -131.591507      -40.256321
