20
 generated by VMD
 C         -19.297606      -49.939285       -9.362301
 N         -19.592037      -51.065411       -9.647379
 H         -16.783327      -47.785549       -9.989214
 H         -18.783064      -49.081673       -9.066007
 C         -16.620815      -47.904045      -11.016006
 C         -15.723133      -48.986813      -11.508419
 C         -17.294598      -47.127213      -12.127286
 C         -16.191048      -49.777248      -12.766298
 C         -17.978678      -48.101040      -13.046596
 C         -16.936220      -48.886349      -13.765764
 H         -15.542339      -49.600994      -10.652225
 H         -14.719825      -48.578644      -11.738956
 H         -18.047169      -46.433548      -11.689087
 H         -16.486147      -46.514957      -12.570293
 H         -16.782223      -50.636837      -12.461590
 H         -15.359641      -50.212540      -13.320577
 H         -18.555199      -47.587749      -13.786630
 H         -18.785757      -48.707382      -12.457844
 H         -17.317530      -49.476120      -14.583535
 H         -16.260992      -48.203861      -14.173932
