20
 generated by VMD
 C         -42.168831     -120.413483      -34.864452
 N         -42.462048     -121.268112      -34.174141
 H         -43.709103     -120.199272      -37.595760
 H         -42.042885     -119.543983      -35.528667
 C         -43.982327     -119.510193      -38.327450
 C         -43.114742     -119.014008      -39.472973
 C         -45.191132     -118.706284      -38.074463
 C         -43.834724     -118.895126      -40.772621
 C         -46.074718     -118.579041      -39.405029
 C         -45.177029     -118.061493      -40.554314
 H         -42.364666     -119.766838      -39.502033
 H         -42.788731     -118.083687      -39.121899
 H         -45.727322     -119.102173      -37.208683
 H         -44.814285     -117.677971      -37.847336
 H         -44.034149     -119.908752      -41.125412
 H         -43.376392     -118.321678      -41.498146
 H         -46.955338     -117.840897      -39.096630
 H         -46.471245     -119.612030      -39.619789
 H         -45.901741     -118.093933      -41.357948
 H         -44.848530     -116.976814      -40.299046
