20
 generated by VMD
 C         -23.112659      -53.353542      -13.853867
 N         -23.822971      -52.958736      -14.674077
 H         -20.699753      -55.513451      -13.878317
 H         -22.589540      -54.066986      -13.042947
 C         -19.630934      -55.206909      -14.277707
 C         -19.142963      -53.881168      -13.751173
 C         -18.650324      -56.239468      -14.603172
 C         -17.944851      -53.864986      -12.755544
 C         -17.592318      -56.293617      -13.464303
 C         -16.916298      -54.894646      -13.216413
 H         -20.035757      -53.340656      -13.266020
 H         -18.861647      -53.077141      -14.514463
 H         -19.163904      -57.206535      -14.693325
 H         -18.180845      -55.978233      -15.605804
 H         -18.280012      -54.113750      -11.726942
 H         -17.515436      -52.838898      -12.711963
 H         -16.910063      -57.081989      -13.677708
 H         -18.087242      -56.530201      -12.462142
 H         -16.188354      -54.957535      -12.440048
 H         -16.438639      -54.601349      -14.103766
