20
 generated by VMD
 C         -28.206881      -81.275528      -27.578217
 N         -29.347933      -81.070602      -27.469851
 H         -29.737297      -82.731499      -24.803968
 H         -27.153811      -81.437881      -27.976225
 C         -30.019693      -83.684708      -24.350807
 C         -30.058640      -83.911980      -22.877220
 C         -30.671438      -84.554642      -25.392673
 C         -31.531754      -84.262764      -22.444738
 C         -32.107735      -84.978416      -24.859575
 C         -32.219330      -85.236778      -23.391329
 H         -29.769819      -82.948364      -22.247421
 H         -29.338020      -84.688087      -22.650131
 H         -30.764267      -83.879333      -26.275019
 H         -30.112225      -85.478279      -25.625174
 H         -32.248745      -83.315262      -22.300676
 H         -31.640587      -84.664360      -21.428034
 H         -32.572372      -85.798889      -25.444498
 H         -32.809155      -84.024620      -25.081308
 H         -33.312298      -85.238953      -23.033882
 H         -31.794857      -86.209785      -23.101240
