20
 generated by VMD
 C         -14.180241      -45.485447       -5.865867
 N         -14.454487      -45.671894       -6.942612
 H         -15.328300      -44.176964       -9.005093
 H         -14.440013      -44.010239      -10.613259
 C         -15.392912      -44.289764      -10.113162
 C         -16.493803      -43.354134      -10.636152
 C         -15.759237      -45.758999      -10.449163
 C         -16.867905      -43.421791      -12.116384
 C         -16.265688      -45.884026      -11.918618
 C         -17.311787      -44.862267      -12.276800
 H         -16.149645      -42.366489      -10.405405
 H         -17.414148      -43.571648      -10.109622
 H         -14.859578      -46.361866      -10.249359
 H         -16.617111      -46.110516       -9.905466
 H         -16.009901      -43.242306      -12.787586
 H         -17.638317      -42.694973      -12.404649
 H         -16.741064      -46.847206      -11.966424
 H         -15.458190      -45.970840      -12.615552
 H         -17.631134      -45.085598      -13.323325
 H         -18.253159      -44.994400      -11.715734
