20
 generated by VMD
 C         -57.691673     -165.525635      -56.531067
 N         -57.778927     -166.662827      -56.257755
 H         -60.576138     -165.042633      -54.405197
 H         -57.709728     -164.483505      -56.674503
 C         -61.570255     -165.192535      -54.815910
 C         -61.868500     -166.596939      -55.251308
 C         -62.272083     -164.094467      -55.443848
 C         -63.311749     -166.811661      -55.421734
 C         -63.694523     -164.460236      -55.723324
 C         -63.889297     -165.811066      -56.457745
 H         -61.528820     -167.375763      -54.639751
 H         -61.363270     -166.790161      -56.206856
 H         -62.181725     -163.170395      -54.790440
 H         -61.761833     -163.785156      -56.376469
 H         -63.930546     -166.626892      -54.523205
 H         -63.471481     -167.827316      -55.726151
 H         -64.025734     -163.702606      -56.358284
 H         -64.233437     -164.500809      -54.756104
 H         -64.917664     -166.031082      -56.680073
 H         -63.462440     -165.769058      -57.456867
