20
 generated by VMD
 C         -38.641090     -115.476547      -35.431213
 N         -39.324936     -115.339493      -34.521172
 H         -41.427723     -115.562431      -36.938271
 H         -38.051979     -115.727432      -36.332947
 C         -42.424488     -115.532341      -37.161434
 C         -42.895813     -115.570877      -38.591885
 C         -43.428143     -115.368217      -36.101982
 C         -44.294697     -116.088028      -38.861382
 C         -44.677334     -116.187660      -36.401669
 C         -45.285168     -115.860077      -37.785736
 H         -42.222660     -116.146851      -39.161354
 H         -42.896763     -114.555893      -38.929394
 H         -43.045273     -115.832207      -35.228828
 H         -43.575901     -114.274826      -36.106453
 H         -44.161251     -117.169853      -39.156799
 H         -44.785690     -115.606407      -39.689770
 H         -45.334778     -115.864586      -35.605259
 H         -44.509026     -117.256889      -36.319550
 H         -46.280922     -116.400414      -37.864189
 H         -45.715145     -114.918770      -37.757961
