20
 generated by VMD
 C         -47.758736     -136.696442      -46.013451
 N         -47.097698     -136.467606      -46.935177
 H         -50.549866     -136.126404      -45.394661
 H         -48.635616     -136.960236      -45.415474
 C         -51.114101     -136.943604      -45.048862
 C         -51.485947     -137.817917      -46.101170
 C         -51.985790     -136.640869      -43.796604
 C         -52.079746     -139.082642      -45.539402
 C         -52.475182     -137.995956      -43.289127
 C         -53.120064     -138.799728      -44.482410
 H         -50.669189     -137.984299      -46.863079
 H         -52.238171     -137.318359      -46.730808
 H         -51.336636     -136.145233      -43.015884
 H         -52.822857     -135.966110      -43.896915
 H         -51.291401     -139.596558      -45.040356
 H         -52.544853     -139.628647      -46.420616
 H         -53.359135     -137.638290      -42.655499
 H         -51.716839     -138.566818      -42.797890
 H         -53.504478     -139.650345      -44.099171
 H         -53.969265     -138.263977      -44.955727
