20
 generated by VMD
 C         -52.489098     -146.979752      -45.317059
 N         -53.403893     -147.399033      -44.682735
 H         -54.681335     -147.136719      -47.828865
 H         -51.694138     -146.775497      -46.039169
 C         -54.571365     -146.268112      -48.524529
 C         -53.344864     -146.168747      -49.370842
 C         -55.287827     -145.029984      -48.122051
 C         -53.374889     -144.986694      -50.338806
 C         -55.224915     -143.833603      -49.019058
 C         -53.839283     -143.723022      -49.599987
 H         -53.130257     -147.099564      -49.884716
 H         -52.503017     -146.036789      -48.584641
 H         -56.294395     -145.320618      -47.902012
 H         -54.987736     -144.610672      -47.092724
 H         -53.970604     -145.250351      -51.279499
 H         -52.309090     -144.864471      -50.608349
 H         -55.473660     -142.899368      -48.634014
 H         -55.929230     -144.033752      -49.947678
 H         -53.942043     -142.903152      -50.401623
 H         -53.112247     -143.223709      -48.868336
