20
 generated by VMD
 C         -68.994614     -193.271225      -66.533836
 N         -67.886703     -193.518509      -66.523033
 H         -69.990417     -190.185333      -65.507172
 H         -70.043747     -193.034988      -66.861649
 C         -70.959862     -190.618698      -65.363373
 C         -71.819160     -190.734650      -66.629089
 C         -71.510902     -191.031357      -64.068886
 C         -72.962891     -191.721161      -66.526917
 C         -73.014885     -190.893356      -64.018471
 C         -73.681549     -191.785080      -65.070732
 H         -71.268059     -190.854752      -67.489532
 H         -72.250389     -189.697998      -66.752220
 H         -71.178078     -191.961777      -63.795273
 H         -71.090401     -190.389389      -63.261307
 H         -72.522713     -192.691040      -66.684166
 H         -73.759430     -191.541306      -67.250961
 H         -73.231552     -189.823257      -63.952042
 H         -73.267860     -191.213333      -63.058743
 H         -73.774643     -192.838715      -64.505798
 H         -74.721848     -191.530807      -65.200516
