20
 generated by VMD
 C         -21.344650      -65.087830      -17.123159
 N         -20.576893      -65.498611      -16.368895
 H         -24.141144      -63.671925      -17.925077
 H         -21.813259      -64.406273      -17.783941
 C         -24.355242      -64.669273      -18.153320
 C         -24.554979      -65.004143      -19.641006
 C         -24.983471      -65.503082      -17.073242
 C         -24.345951      -66.526070      -19.729282
 C         -24.894121      -67.025108      -17.399588
 C         -25.232800      -67.247345      -18.788931
 H         -23.785851      -64.405106      -20.239185
 H         -25.529408      -64.585281      -19.975409
 H         -24.404285      -65.435196      -16.026449
 H         -26.037815      -65.177567      -16.971106
 H         -23.332066      -66.736511      -19.607733
 H         -24.498884      -66.748955      -20.756865
 H         -25.555872      -67.592827      -16.813446
 H         -23.886307      -67.336487      -17.115669
 H         -25.327709      -68.290390      -18.982063
 H         -26.242226      -66.805046      -18.870163
