20
 generated by VMD
 C         -11.784511      -26.505955       -0.358858
 N         -12.719250      -26.322701       -0.952468
 H         -10.227177      -26.408121       -3.795360
 H          -9.243672      -25.707926       -5.064162
 C          -9.186912      -26.103899       -4.027642
 C          -8.323389      -27.333065       -4.209812
 C          -8.577298      -25.085991       -3.054535
 C          -6.910082      -27.003382       -4.541006
 C          -7.134787      -24.838591       -3.450453
 C          -6.318284      -26.110353       -3.524965
 H          -8.738939      -28.137104       -4.903222
 H          -8.321712      -27.901670       -3.298919
 H          -9.243335      -24.234503       -2.927677
 H          -8.632080      -25.535345       -2.036397
 H          -6.870548      -26.575216       -5.588695
 H          -6.354084      -27.969040       -4.642593
 H          -6.638083      -24.092003       -2.835564
 H          -7.118612      -24.512609       -4.510451
 H          -5.259586      -25.899012       -3.706916
 H          -6.431226      -26.536032       -2.542915
