20
 generated by VMD
 C         -59.939095     -171.554016      -55.279732
 N         -59.492271     -172.525848      -54.900925
 H         -63.183453     -170.509598      -56.857170
 H         -60.451172     -170.644409      -55.526775
 C         -63.457497     -169.448074      -56.911129
 C         -62.514996     -168.338669      -57.402523
 C         -65.009071     -169.203873      -56.833706
 C         -63.123917     -167.905411      -58.743496
 C         -65.374847     -168.712891      -58.197273
 C         -64.552979     -167.610443      -58.779335
 H         -61.382572     -168.669235      -57.675289
 H         -62.488373     -167.480759      -56.728844
 H         -65.635902     -170.145081      -56.667130
 H         -65.085960     -168.479248      -56.063797
 H         -62.844627     -168.702133      -59.493286
 H         -62.463268     -167.009933      -59.037884
 H         -66.367241     -168.343292      -58.111454
 H         -65.315781     -169.567535      -58.890499
 H         -64.911316     -167.517639      -59.841545
 H         -64.727379     -166.679413      -58.220745
