20
 generated by VMD
 C         -19.909655      -59.100590      -17.297827
 N         -19.322893      -58.895573      -18.283825
 H         -22.947287      -59.701233      -16.158117
 H         -20.726843      -59.531059      -16.599514
 C         -22.726576      -60.815861      -16.130083
 C         -23.501144      -61.647923      -17.150541
 C         -22.699881      -61.313667      -14.743860
 C         -22.995502      -63.039089      -17.178608
 C         -22.503582      -62.859653      -14.703580
 C         -23.322908      -63.576248      -15.724080
 H         -23.427336      -61.185329      -18.080303
 H         -24.541386      -61.622643      -17.047791
 H         -21.954853      -60.606304      -14.173408
 H         -23.590145      -60.999001      -14.169397
 H         -21.895676      -63.051907      -17.337715
 H         -23.610847      -63.631763      -17.961872
 H         -22.434933      -63.371929      -13.710991
 H         -21.471043      -63.083717      -15.027644
 H         -23.082569      -64.674416      -15.753845
 H         -24.399239      -63.446098      -15.591428
