20
 generated by VMD
 C         -77.076912     -203.602722      -66.854996
 N         -77.876137     -204.232925      -66.274086
 H         -75.777550     -200.526108      -68.735313
 H         -76.198242     -202.971329      -67.165970
 C         -74.856567     -200.058121      -69.046692
 C         -74.748802     -198.592758      -68.674248
 C         -73.705170     -200.713791      -69.692291
 C         -73.387360     -198.009827      -69.116692
 C         -72.866821     -199.855865      -70.570053
 C         -73.143646     -198.314468      -70.547546
 H         -75.026222     -198.439484      -67.643074
 H         -75.567146     -198.114960      -69.304558
 H         -73.214745     -201.271194      -68.928886
 H         -74.334038     -201.394135      -70.309868
 H         -72.587250     -198.293045      -68.444794
 H         -73.396179     -196.948593      -69.102684
 H         -73.001938     -200.244705      -71.573494
 H         -71.803192     -199.983719      -70.328461
 H         -72.363586     -197.855026      -71.014771
 H         -73.954437     -198.000534      -71.238297
