20
 generated by VMD
 C         -29.126385      -88.086578      -25.110588
 N         -28.778620      -87.728615      -26.150711
 H         -31.387239      -90.066086      -27.437445
 H         -29.279100      -88.415085      -24.161783
 C         -32.256668      -89.526260      -27.114738
 C         -32.767326      -89.196175      -25.695148
 C         -33.165852      -89.224243      -28.327688
 C         -33.764240      -87.985107      -25.549730
 C         -34.082249      -87.961632      -28.057350
 C         -34.695587      -87.911606      -26.707247
 H         -31.814415      -89.002663      -25.144295
 H         -33.206158      -90.089050      -25.249300
 H         -32.477882      -89.070297      -29.187757
 H         -33.857357      -90.030289      -28.693035
 H         -33.181446      -86.997353      -25.503519
 H         -34.281040      -88.096733      -24.494518
 H         -34.881645      -87.902679      -28.770861
 H         -33.589947      -87.012909      -28.174540
 H         -35.172760      -86.920746      -26.624258
 H         -35.460110      -88.693115      -26.654247
