20
 generated by VMD
 C          -9.569470      -25.040836        0.658827
 N         -10.549253      -25.491110        0.979829
 H          -6.295241      -23.233025       -0.713116
 H          -7.832933      -22.817253       -1.325810
 C          -6.877414      -23.224165       -1.653117
 C          -7.217366      -24.543364       -2.310551
 C          -6.342599      -22.154942       -2.630512
 C          -8.150957      -24.380709       -3.499135
 C          -7.280592      -22.068033       -3.891777
 C          -7.536312      -23.434393       -4.535650
 H          -7.778781      -25.317997       -1.675440
 H          -6.253110      -24.916096       -2.724069
 H          -6.223613      -21.201447       -2.123213
 H          -5.384707      -22.512753       -3.075517
 H          -9.027245      -23.910587       -3.119267
 H          -8.289099      -25.364260       -4.000617
 H          -6.895936      -21.311586       -4.565995
 H          -8.267982      -21.733772       -3.531895
 H          -8.186934      -23.346319       -5.378160
 H          -6.590762      -23.894209       -4.886794
