20
 generated by VMD
 C         -50.877693     -130.835510      -46.422897
 N         -50.264996     -130.826523      -47.353737
 H         -48.190567     -132.091766      -44.423836
 H         -51.191341     -130.855255      -45.356899
 C         -48.401272     -132.355637      -43.347252
 C         -48.999149     -133.693451      -43.097282
 C         -48.375675     -131.331940      -42.197239
 C         -48.437649     -134.299744      -41.761032
 C         -47.808235     -132.055481      -40.922951
 C         -48.583138     -133.349472      -40.649845
 H         -48.794590     -134.401138      -43.933971
 H         -50.093647     -133.592270      -43.161732
 H         -47.854828     -130.490097      -42.286537
 H         -49.365456     -130.924911      -41.952686
 H         -47.351162     -134.526474      -41.872864
 H         -48.968235     -135.241333      -41.677769
 H         -48.057247     -131.432480      -40.011772
 H         -46.808868     -132.274185      -41.083954
 H         -48.174313     -133.867996      -39.786648
 H         -49.626209     -133.350723      -40.218758
