20
 generated by VMD
 C         -49.212616     -126.931786      -39.860809
 N         -50.099518     -127.203041      -39.196342
 H         -46.789669     -126.960014      -42.607037
 H         -48.522392     -126.723900      -40.673523
 C         -46.218998     -126.446136      -41.898880
 C         -45.322659     -126.868866      -40.828693
 C         -46.682419     -124.988060      -41.799809
 C         -44.166481     -125.813988      -40.408634
 C         -45.578110     -123.985413      -41.422924
 C         -44.793365     -124.404114      -40.196712
 H         -44.909409     -127.889847      -41.108654
 H         -45.833130     -127.107956      -39.909840
 H         -47.253651     -124.749084      -42.737251
 H         -47.568245     -124.959747      -41.068829
 H         -43.272118     -125.873161      -41.103630
 H         -43.810848     -126.068817      -39.379261
 H         -46.078407     -122.981750      -41.303776
 H         -45.055428     -123.763573      -42.304813
 H         -43.997189     -123.683556      -39.931599
 H         -45.497879     -124.416893      -39.369213
