20
 generated by VMD
 C         -49.814228     -141.621078      -45.347515
 N         -49.480484     -142.683289      -45.179585
 H         -51.845573     -138.991791      -45.972683
 H         -50.003983     -140.554306      -45.395634
 C         -52.254005     -139.856125      -46.410812
 C         -52.363667     -139.990311      -47.960083
 C         -53.226059     -140.401184      -45.470402
 C         -53.098492     -141.274048      -48.294865
 C         -53.704697     -141.830719      -45.895454
 C         -54.188030     -141.755615      -47.361755
 H         -51.346752     -139.814240      -48.367161
 H         -52.950001     -139.163177      -48.388947
 H         -52.965721     -140.451859      -44.412788
 H         -54.113735     -139.694778      -45.389694
 H         -52.457275     -142.217316      -48.385811
 H         -53.420658     -141.222733      -49.399231
 H         -54.292015     -142.409607      -45.241070
 H         -52.770687     -142.310806      -46.019154
 H         -54.508560     -142.794846      -47.742695
 H         -55.162842     -141.259033      -47.383099
