20
 generated by VMD
 C         -57.752796     -162.000305      -56.182537
 N         -57.146961     -162.111740      -57.187843
 H         -59.537834     -164.726242      -55.245136
 H         -58.239338     -161.940598      -55.235538
 C         -60.552238     -164.259003      -54.924736
 C         -60.701107     -164.255371      -53.380058
 C         -61.707428     -164.693344      -55.739052
 C         -61.757874     -163.202560      -52.919849
 C         -62.831532     -163.649857      -55.384548
 C         -63.031715     -163.385330      -53.821255
 H         -59.706360     -164.101746      -52.943100
 H         -60.966331     -165.256805      -53.189365
 H         -61.412071     -164.756866      -56.804008
 H         -62.074657     -165.710892      -55.438103
 H         -61.380550     -162.191635      -53.094162
 H         -62.000710     -163.385239      -51.832584
 H         -63.823883     -163.828079      -55.903572
 H         -62.606197     -162.724472      -55.771034
 H         -63.535538     -162.503815      -53.645088
 H         -63.566677     -164.200882      -53.396702
