20
 generated by VMD
 C         -23.016018      -54.899830      -16.688398
 N         -23.760197      -55.203773      -15.794847
 H         -19.684704      -55.410789      -15.563882
 H         -22.413540      -54.700264      -17.484903
 C         -19.064192      -55.830536      -14.782666
 C         -19.307541      -55.794891      -13.246289
 C         -18.474297      -57.163582      -15.220441
 C         -20.214466      -56.975986      -12.844073
 C         -19.371944      -58.284737      -14.736990
 C         -19.438677      -58.228008      -13.217865
 H         -19.833878      -54.872177      -13.012810
 H         -18.360312      -55.890457      -12.717972
 H         -18.377195      -57.142525      -16.314480
 H         -17.507210      -57.293686      -14.812047
 H         -21.203924      -56.921421      -13.307911
 H         -20.308672      -57.045868      -11.736590
 H         -18.880156      -59.221512      -14.976246
 H         -20.356693      -58.409775      -15.281257
 H         -19.980398      -59.106468      -12.900037
 H         -18.423145      -58.218239      -12.769764
