20
 generated by VMD
 C          -1.108119      -10.828897        0.906650
 N          -1.442709       -9.761440        1.124390
 H          -3.613624      -12.622265        0.586274
 H          -4.546156      -12.180809        2.012042
 C          -4.184390      -13.002409        1.443048
 C          -3.370239      -13.982997        2.261714
 C          -5.347820      -13.682770        0.786381
 C          -4.186329      -14.684779        3.342978
 C          -6.221193      -14.474960        1.793270
 C          -5.301181      -15.400442        2.645131
 H          -2.478326      -13.504333        2.677219
 H          -2.938475      -14.748605        1.617491
 H          -6.090930      -12.994930        0.275482
 H          -5.044087      -14.453148        0.036563
 H          -4.427502      -13.946052        4.100106
 H          -3.449850      -15.385105        3.764441
 H          -7.007877      -15.010437        1.290986
 H          -6.663808      -13.777878        2.499781
 H          -5.891644      -15.899329        3.434717
 H          -4.887409      -16.188265        1.944027
