20
 generated by VMD
 C         -31.893372      -93.074631      -26.019476
 N         -32.325470      -94.003204      -25.482620
 H         -33.629482      -94.505547      -28.246805
 H         -31.359457      -92.294144      -26.540659
 C         -34.108994      -93.610497      -28.632376
 C         -35.494164      -93.304977      -28.082396
 C         -33.476326      -92.987350      -29.872505
 C         -35.558590      -91.787086      -28.044065
 C         -33.622349      -91.464317      -29.804741
 C         -35.010723      -91.085091      -29.312452
 H         -35.577957      -93.638893      -27.035931
 H         -36.198380      -93.793488      -28.807858
 H         -32.387547      -93.307930      -29.954807
 H         -33.846085      -93.297043      -30.853971
 H         -35.103615      -91.488861      -27.122595
 H         -36.638786      -91.567215      -27.805952
 H         -33.365177      -91.029770      -30.778936
 H         -33.028000      -90.927574      -29.032696
 H         -34.931999      -90.064705      -28.937551
 H         -35.696297      -90.998848      -30.102261
