20
 generated by VMD
 C         -40.115429     -100.803902      -31.736172
 N         -40.744972     -100.181107      -31.036398
 H         -37.352215     -103.452415      -32.217339
 H         -39.275764     -101.450974      -32.171825
 C         -36.858070     -102.590805      -31.696699
 C         -35.848499     -102.187653      -32.671474
 C         -36.800816     -102.172272      -30.264044
 C         -35.760441     -100.670944      -32.607670
 C         -36.202667     -100.782028      -30.081934
 C         -35.393467     -100.192635      -31.187040
 H         -36.161541     -102.577827      -33.669918
 H         -34.859009     -102.612877      -32.363003
 H         -37.778072     -102.106697      -29.740025
 H         -36.221813     -102.923195      -29.658470
 H         -36.725906     -100.375130      -32.858353
 H         -35.041603     -100.375732      -33.401230
 H         -35.543392     -100.785805      -29.107754
 H         -37.034065     -100.090302      -29.906200
 H         -35.656647      -99.177040      -31.105776
 H         -34.327751     -100.419579      -31.017101
