20
 generated by VMD
 C         -50.955338     -129.656387      -45.305141
 N         -51.608814     -130.320923      -46.075977
 H         -48.534122     -130.467072      -43.592590
 H         -50.538029     -129.165131      -44.431755
 C         -48.185772     -130.579803      -42.635132
 C         -48.192585     -131.903046      -42.010952
 C         -47.692184     -129.393112      -41.862389
 C         -46.894333     -132.200287      -41.261578
 C         -46.405842     -129.729538      -40.997646
 C         -46.682674     -131.054657      -40.277779
 H         -48.278645     -132.761063      -42.651028
 H         -49.077419     -132.033051      -41.338860
 H         -47.451775     -128.529373      -42.593124
 H         -48.497272     -129.174805      -41.155403
 H         -45.960049     -132.472031      -41.800781
 H         -47.089825     -133.140137      -40.663052
 H         -46.295368     -128.926804      -40.245960
 H         -45.528885     -129.748047      -41.666904
 H         -45.831593     -131.113281      -39.695469
 H         -47.491337     -130.820328      -39.614292
