20
 generated by VMD
 C         -23.704710      -68.879829      -16.551739
 N         -23.330030      -69.627548      -15.743949
 H         -23.786386      -66.150536      -19.087023
 H         -23.855028      -68.075218      -17.200523
 C         -24.454151      -66.955528      -19.534288
 C         -23.947006      -67.731613      -20.682318
 C         -25.895807      -67.190514      -19.088280
 C         -24.487209      -69.255302      -20.686605
 C         -26.425802      -68.531891      -19.203104
 C         -25.937902      -69.176453      -20.551317
 H         -22.830677      -67.879883      -20.580311
 H         -24.084866      -67.264923      -21.599827
 H         -26.110682      -66.828751      -18.065111
 H         -26.534422      -66.355431      -19.600779
 H         -24.011318      -69.793411      -19.899046
 H         -24.335316      -69.803741      -21.559307
 H         -27.495054      -68.549469      -19.002348
 H         -26.179583      -69.191315      -18.378445
 H         -26.408331      -70.178398      -20.554644
 H         -26.473673      -68.485107      -21.235735
