20
 generated by VMD
 C         -47.331387     -138.842224      -45.677769
 N         -46.904385     -138.464920      -46.692970
 H         -50.677341     -138.328018      -44.935703
 H         -47.680008     -139.101990      -44.659885
 C         -51.693050     -138.641754      -45.154537
 C         -51.732105     -139.169037      -46.533203
 C         -52.913807     -138.401184      -44.271816
 C         -52.959839     -140.099716      -46.703506
 C         -54.000736     -139.354172      -44.613781
 C         -54.138092     -139.555283      -46.070362
 H         -50.742111     -139.647202      -46.760708
 H         -51.986923     -138.318222      -47.259300
 H         -52.683327     -138.516296      -43.242992
 H         -53.256645     -137.382736      -44.383224
 H         -52.692696     -141.027496      -46.121185
 H         -52.995171     -140.320023      -47.803650
 H         -54.889336     -138.773636      -44.155273
 H         -53.871529     -140.327225      -44.142117
 H         -55.021339     -140.279663      -46.252354
 H         -54.551620     -138.731003      -46.549160
