20
 generated by VMD
 C         -64.897507     -175.515671      -55.822651
 N         -64.309631     -176.330109      -56.374252
 H         -64.821983     -174.332947      -58.606506
 H         -65.530479     -174.781769      -55.336193
 C         -64.712967     -173.366867      -59.049206
 C         -65.357803     -172.280273      -58.297810
 C         -63.994110     -173.237823      -60.260414
 C         -64.574875     -171.006027      -58.393745
 C         -63.075623     -172.121185      -60.220615
 C         -63.867603     -170.888916      -59.837830
 H         -65.437523     -172.588943      -57.238052
 H         -66.416046     -172.247253      -58.669205
 H         -63.589512     -174.214981      -60.645943
 H         -64.721771     -173.061447      -61.086262
 H         -63.768917     -171.005020      -57.590572
 H         -65.243805     -170.138596      -58.168396
 H         -62.592010     -172.146713      -61.165470
 H         -62.236752     -172.147476      -59.462589
 H         -63.322193     -170.007324      -59.990200
 H         -64.699585     -170.774338      -60.557617
