20
 generated by VMD
 C         -23.103479      -55.221355      -16.809225
 N         -23.601372      -54.907089      -15.809764
 H         -19.511984      -55.320240      -15.432872
 H         -22.817993      -55.150467      -17.751904
 C         -19.311249      -56.143864      -14.840649
 C         -19.579100      -56.022678      -13.416849
 C         -18.410812      -57.313671      -15.205744
 C         -20.475765      -57.205345      -12.981213
 C         -18.886869      -58.642368      -14.661707
 C         -19.914640      -58.572655      -13.433228
 H         -20.213968      -55.077686      -13.267865
 H         -18.718239      -55.822853      -12.725400
 H         -18.190073      -57.321655      -16.308167
 H         -17.377153      -57.050785      -14.817068
 H         -21.518770      -57.132381      -13.346676
 H         -20.475229      -57.168541      -11.916457
 H         -17.958889      -59.116951      -14.294190
 H         -19.239466      -59.338093      -15.359408
 H         -20.807756      -59.207203      -13.688445
 H         -19.392612      -59.054790      -12.619443
