20
 generated by VMD
 C         -58.716263     -151.976791      -48.982540
 N         -59.299553     -152.195541      -50.017906
 H         -56.352505     -150.355820      -48.470367
 H         -58.092850     -151.949219      -48.070271
 C         -55.514259     -150.087448      -49.014534
 C         -54.608334     -151.139755      -49.596416
 C         -55.295254     -148.642288      -49.171013
 C         -54.155788     -150.737793      -51.051170
 C         -54.761272     -148.188980      -50.493687
 C         -53.704971     -149.163177      -51.075352
 H         -55.265144     -152.055374      -49.623665
 H         -53.840633     -151.316559      -48.888557
 H         -56.193687     -148.017807      -48.926052
 H         -54.431808     -148.320297      -48.495167
 H         -54.993950     -150.895752      -51.773323
 H         -53.373554     -151.441330      -51.441181
 H         -54.284668     -147.154083      -50.486488
 H         -55.586246     -148.239639      -51.128586
 H         -53.507870     -148.872360      -52.071461
 H         -52.776890     -149.084747      -50.398983
