20
 generated by VMD
 C         -61.356609     -154.721848      -53.862514
 N         -61.825508     -155.152359      -52.837376
 H         -57.994930     -154.882812      -52.416836
 H         -60.979763     -154.286453      -54.795769
 C         -57.113625     -154.675110      -51.798431
 C         -57.289387     -154.203506      -50.366714
 C         -55.886742     -154.268463      -52.506271
 C         -56.089989     -154.687454      -49.459900
 C         -54.772491     -154.619659      -51.605392
 C         -54.784801     -154.196625      -50.144291
 H         -58.259369     -154.474121      -49.977104
 H         -57.433907     -153.108948      -50.347778
 H         -55.837101     -154.768600      -53.516338
 H         -55.745285     -153.194550      -52.716568
 H         -56.252712     -155.728226      -49.273918
 H         -56.164898     -154.288162      -48.475979
 H         -53.817867     -154.236008      -51.988731
 H         -54.707310     -155.676147      -51.710762
 H         -54.021278     -154.629501      -49.538147
 H         -54.613270     -153.063461      -50.034702
