20
 generated by VMD
 C         -60.023087     -156.656967      -55.807297
 N         -60.931385     -156.138641      -56.201324
 H         -59.810783     -157.576401      -53.094704
 H         -59.155045     -157.208740      -55.584705
 C         -58.745724     -157.994797      -52.895447
 C         -57.630516     -156.986649      -52.579075
 C         -58.602989     -159.424225      -52.421158
 C         -57.371243     -156.981750      -51.013645
 C         -58.285061     -159.392624      -50.941013
 C         -57.139545     -158.441315      -50.560173
 H         -57.929218     -156.007217      -52.974842
 H         -56.710899     -157.212326      -52.994526
 H         -59.526314     -159.995438      -52.659000
 H         -57.764576     -159.822418      -52.964157
 H         -58.161091     -156.580643      -50.381332
 H         -56.373997     -156.415054      -50.915058
 H         -58.096828     -160.403885      -50.638340
 H         -59.088734     -158.944016      -50.486805
 H         -56.887440     -158.481094      -49.565487
 H         -56.170715     -158.729645      -51.116165
