20
 generated by VMD
 C          -7.057770      -23.257189        2.876936
 N          -6.173485      -22.614737        2.620115
 H          -6.631227      -21.521278       -0.217812
 H          -8.159121      -21.818581       -0.915429
 C          -7.173061      -21.420765       -1.151563
 C          -6.443470      -22.245001       -2.130523
 C          -7.341995      -19.963854       -1.594250
 C          -7.080717      -22.168509       -3.515575
 C          -7.971660      -19.829262       -2.990983
 C          -7.216757      -20.703522       -3.964856
 H          -6.375952      -23.261667       -1.781081
 H          -5.309549      -22.034510       -2.181955
 H          -8.007492      -19.447363       -0.856497
 H          -6.321739      -19.617138       -1.635278
 H          -8.088502      -22.548504       -3.461330
 H          -6.430325      -22.716488       -4.211739
 H          -7.894462      -18.744030       -3.235929
 H          -8.995108      -20.238096       -2.878872
 H          -7.588904      -20.674160       -4.985118
 H          -6.179956      -20.344007       -3.981861
