20
 generated by VMD
 C         -79.388298     -206.079712      -74.693993
 N         -79.398346     -206.598557      -73.690834
 H         -78.697319     -206.525131      -70.972527
 H         -79.466148     -205.527588      -75.617470
 C         -77.695412     -206.551697      -70.587135
 C         -76.695503     -205.695297      -71.284348
 C         -77.304298     -207.748413      -69.829399
 C         -75.318024     -205.606934      -70.569214
 C         -75.892441     -207.743759      -69.199318
 C         -74.810257     -206.965622      -70.052460
 H         -77.275955     -204.833527      -71.403198
 H         -76.501221     -206.090607      -72.245407
 H         -78.051361     -207.788513      -68.992371
 H         -77.547447     -208.576157      -70.515640
 H         -75.335625     -204.903336      -69.753754
 H         -74.695740     -205.292908      -71.417938
 H         -75.513458     -208.822571      -69.189072
 H         -75.894501     -207.478073      -68.165726
 H         -73.874123     -206.862045      -69.503456
 H         -74.696304     -207.604050      -70.992386
