20
 generated by VMD
 C         -31.202263      -75.680252      -21.562155
 N         -32.345375      -75.350403      -21.429758
 H         -27.750242      -75.559410      -19.894796
 H         -30.212690      -75.929192      -21.233747
 C         -27.062557      -75.338760      -20.720362
 C         -26.525616      -76.446968      -21.519495
 C         -26.084127      -74.275391      -20.465540
 C         -25.800179      -75.992424      -22.760080
 C         -25.413483      -73.718315      -21.776335
 C         -24.829416      -74.953705      -22.529095
 H         -27.330587      -77.123032      -21.737108
 H         -25.711544      -77.050629      -21.002846
 H         -26.655165      -73.451759      -19.923817
 H         -25.366558      -74.437370      -19.751930
 H         -26.557518      -75.664429      -23.431557
 H         -25.373455      -76.850380      -23.226768
 H         -24.556023      -73.068558      -21.519583
 H         -26.184256      -73.275475      -22.435257
 H         -24.347113      -74.629936      -23.451849
 H         -24.140671      -75.526970      -21.854025
