20
 generated by VMD
 C         -41.472237     -101.452492      -32.618420
 N         -41.696224     -101.565590      -33.769421
 H         -38.759937     -102.762230      -32.361004
 H         -41.215176     -101.368195      -31.574017
 C         -37.730492     -102.968300      -32.111691
 C         -36.567642     -103.104736      -32.969772
 C         -37.499252     -103.232559      -30.633642
 C         -35.431751     -102.304672      -32.342827
 C         -36.294930     -102.719978      -29.995441
 C         -35.050903     -102.788666      -30.958035
 H         -36.898140     -102.721474      -33.954803
 H         -36.357773     -104.212997      -33.089649
 H         -38.393936     -102.762428      -30.137087
 H         -37.764515     -104.267891      -30.625580
 H         -35.733105     -101.298920      -32.324097
 H         -34.596558     -102.400322      -33.000237
 H         -36.124424     -103.370354      -29.090002
 H         -36.229919     -101.720291      -29.621050
 H         -34.219536     -102.105637      -30.618746
 H         -34.716393     -103.814224      -31.098469
