20
 generated by VMD
 C          -1.491224      -11.444560        1.579304
 N          -1.130779      -12.192787        0.861770
 H          -3.651440      -13.190009        0.421361
 H          -5.224634      -12.773335        0.760000
 C          -4.540595      -13.595453        0.837895
 C          -4.277855      -13.814161        2.334855
 C          -4.930838      -14.902103        0.135687
 C          -5.374610      -14.654915        3.052063
 C          -6.084634      -15.668266        0.902454
 C          -5.738645      -15.922250        2.329203
 H          -4.365465      -12.761101        2.798873
 H          -3.257939      -14.276073        2.444653
 H          -5.310662      -14.634309       -0.812401
 H          -4.121778      -15.591844        0.028823
 H          -6.277697      -13.992338        3.055305
 H          -5.065466      -14.810968        4.117558
 H          -6.162369      -16.642670        0.364883
 H          -6.966882      -15.064650        0.732905
 H          -6.542955      -16.485209        2.785594
 H          -4.862834      -16.564436        2.307316
