20
 generated by VMD
 C         -22.654963      -68.359322      -16.666151
 N         -22.695457      -68.975380      -15.688528
 H         -24.210722      -65.797333      -18.905525
 H         -22.681219      -67.764603      -17.487581
 C         -24.586264      -66.817909      -19.085648
 C         -23.944227      -67.507439      -20.225037
 C         -26.087940      -66.799850      -19.011202
 C         -24.453577      -68.878258      -20.523714
 C         -26.689304      -68.206123      -19.213017
 C         -25.951281      -68.883743      -20.446131
 H         -22.926331      -67.606613      -19.918669
 H         -24.145515      -66.882050      -21.051132
 H         -26.485655      -66.509697      -17.963156
 H         -26.551348      -66.094627      -19.749405
 H         -23.820499      -69.556129      -19.845091
 H         -24.075464      -69.150154      -21.533245
 H         -27.815958      -68.327515      -19.362589
 H         -26.508463      -68.832954      -18.300013
 H         -26.258139      -69.919853      -20.418589
 H         -26.167305      -68.379547      -21.381834
