20
 generated by VMD
 C         -78.657730     -209.810471      -76.714867
 N         -77.684158     -210.128403      -77.282234
 H         -79.726219     -211.554474      -74.347862
 H         -79.518433     -209.493088      -76.189629
 C         -79.552162     -212.100174      -73.410492
 C         -78.282814     -212.385925      -72.693176
 C         -80.555145     -213.145798      -73.112770
 C         -78.338402     -212.792496      -71.203392
 C         -80.701462     -213.377731      -71.559212
 C         -79.366478     -213.767792      -70.997467
 H         -77.626480     -211.553482      -72.670837
 H         -77.754036     -213.172791      -73.245224
 H         -81.543678     -212.923309      -73.550026
 H         -80.200317     -214.007629      -73.559258
 H         -78.353371     -211.893372      -70.578667
 H         -77.330009     -213.204117      -70.948410
 H         -81.719749     -213.884628      -71.369682
 H         -80.979431     -212.392609      -71.144592
 H         -79.505730     -213.968018      -69.914482
 H         -79.083351     -214.866257      -71.191208
