20
 generated by VMD
 C          -1.605791       -8.103716        0.760285
 N          -2.380459       -7.618819        0.085388
 H          -3.578352       -9.346102        2.234564
 H          -2.222989      -10.366177        2.049569
 C          -3.110929      -10.232175        2.677742
 C          -4.116175      -11.387312        2.416123
 C          -2.812650      -10.059732        4.156243
 C          -3.604129      -12.690013        2.988761
 C          -2.308346      -11.407693        4.787637
 C          -3.218807      -12.643123        4.446129
 H          -4.329828      -11.330036        1.367845
 H          -5.025625      -11.105441        2.869552
 H          -2.077249       -9.280066        4.413729
 H          -3.773209       -9.668972        4.612983
 H          -2.702986      -12.867920        2.393634
 H          -4.296093      -13.528512        2.777174
 H          -2.217871      -11.274976        5.896347
 H          -1.282861      -11.650071        4.418760
 H          -2.773549      -13.600963        4.765312
 H          -4.158305      -12.614201        5.020239
