20
 generated by VMD
 C         -38.204830     -113.920753      -35.405693
 N         -38.363617     -115.066109      -35.360813
 H         -41.464096     -114.529449      -36.099770
 H         -37.944229     -112.879745      -35.751854
 C         -42.379688     -114.786102      -36.580349
 C         -42.623169     -114.974503      -38.014557
 C         -43.523598     -114.605988      -35.607189
 C         -44.010220     -115.581100      -38.436909
 C         -44.651466     -115.615631      -35.997345
 C         -45.153080     -115.427673      -37.373318
 H         -41.805912     -115.475357      -38.571922
 H         -42.563808     -114.041702      -38.567520
 H         -43.024181     -114.765709      -34.627987
 H         -43.899826     -113.597198      -35.827637
 H         -43.971996     -116.710732      -38.583740
 H         -44.361729     -115.231003      -39.429840
 H         -45.444031     -115.438087      -35.228622
 H         -44.175030     -116.616051      -35.982933
 H         -45.939678     -116.256165      -37.665756
 H         -45.648815     -114.505493      -37.666973
