20
 generated by VMD
 C         -57.903843     -164.705597      -56.508999
 N         -57.248535     -163.999969      -57.197208
 H         -60.012905     -164.953064      -54.433605
 H         -58.491203     -165.422379      -55.898945
 C         -61.014503     -164.913406      -54.652344
 C         -61.893032     -165.805084      -53.815624
 C         -61.355598     -164.251175      -55.893723
 C         -63.418365     -165.579010      -54.059521
 C         -62.893307     -163.864075      -55.860596
 C         -63.719357     -165.067001      -55.467194
 H         -61.649246     -165.486908      -52.771797
 H         -61.663635     -166.834198      -54.046272
 H         -60.840237     -163.328491      -55.940540
 H         -61.250664     -164.758469      -56.867039
 H         -63.602798     -164.777512      -53.353367
 H         -64.033478     -166.387817      -53.701195
 H         -63.253025     -163.418350      -56.729023
 H         -62.918079     -163.209457      -54.942184
 H         -64.816429     -164.847412      -55.589657
 H         -63.468864     -165.949997      -56.099251
