20
 generated by VMD
 C         -57.887623     -165.383865      -56.424236
 N         -57.641563     -166.496323      -56.415009
 H         -60.781742     -164.886292      -54.070427
 H         -58.181046     -164.375336      -56.350159
 C         -61.470184     -165.183823      -54.819080
 C         -61.822891     -166.575424      -55.117088
 C         -62.168732     -164.096039      -55.538727
 C         -63.272594     -166.794662      -55.370617
 C         -63.632042     -164.257568      -55.766155
 C         -63.922600     -165.698257      -56.227909
 H         -61.395592     -167.081940      -54.180161
 H         -61.262108     -166.702805      -56.058952
 H         -61.983818     -163.147156      -55.048756
 H         -61.625286     -163.975037      -56.553085
 H         -63.693348     -166.908096      -54.328304
 H         -63.456097     -167.816086      -55.860600
 H         -64.007629     -163.708893      -56.641117
 H         -64.253754     -164.057068      -54.935726
 H         -65.021194     -165.929672      -56.324642
 H         -63.508987     -165.967392      -57.253529
