20
 generated by VMD
 C         -52.721035     -147.189651      -45.381401
 N         -53.787930     -147.368668      -45.047367
 H         -54.578751     -147.271042      -47.931587
 H         -51.692062     -146.989197      -45.602821
 C         -54.526176     -146.427505      -48.568851
 C         -53.312698     -146.323715      -49.393341
 C         -55.238312     -145.236038      -48.075603
 C         -53.352875     -145.117477      -50.374039
 C         -55.234814     -144.070160      -48.964310
 C         -53.819389     -143.820404      -49.646049
 H         -53.353649     -147.324280      -49.947624
 H         -52.428158     -146.338165      -48.766438
 H         -56.334538     -145.258636      -47.729237
 H         -54.696075     -144.997070      -47.150684
 H         -54.085960     -145.515991      -51.246925
 H         -52.283119     -144.904114      -50.749210
 H         -55.461845     -143.105438      -48.378487
 H         -55.956215     -144.189011      -49.762768
 H         -53.971767     -143.102997      -50.486832
 H         -53.046268     -143.391647      -48.988483
