20
 generated by VMD
 C         -68.748070     -184.714401      -65.935822
 N         -69.589409     -185.468979      -66.092636
 H         -69.496368     -183.052841      -63.875877
 H         -67.969025     -183.926804      -65.745758
 C         -69.193039     -183.672897      -62.984432
 C         -69.919891     -184.953552      -62.622318
 C         -67.903633     -183.316956      -62.381901
 C         -68.986031     -185.876038      -61.784515
 C         -67.371147     -184.122543      -61.220001
 C         -68.271317     -185.135986      -60.623650
 H         -70.310394     -185.387802      -63.515606
 H         -70.712715     -184.643829      -61.915245
 H         -67.082359     -183.432571      -63.218529
 H         -67.855339     -182.218048      -62.081474
 H         -68.209160     -186.374161      -62.338573
 H         -69.639748     -186.686844      -61.569626
 H         -66.994843     -183.286087      -60.584095
 H         -66.412819     -184.660614      -61.377930
 H         -67.755386     -185.784637      -59.898472
 H         -69.077797     -184.444427      -59.972218
