20
 generated by VMD
 C         -74.238190     -200.745880      -66.086990
 N         -73.083771     -200.890305      -66.286179
 H         -76.175789     -198.624893      -67.706467
 H         -75.248276     -200.527832      -65.894119
 C         -75.291687     -198.132217      -68.171890
 C         -74.880005     -196.784149      -67.720650
 C         -74.481949     -198.834808      -69.319702
 C         -73.559128     -196.261597      -68.364395
 C         -73.248543     -198.146194      -69.902054
 C         -72.557915     -197.239944      -68.824074
 H         -74.821609     -196.702332      -66.701424
 H         -75.693771     -195.992691      -68.048035
 H         -74.139900     -199.729080      -68.788086
 H         -75.150322     -199.260712      -70.083771
 H         -72.962357     -195.600662      -67.773705
 H         -73.723755     -195.643005      -69.238327
 H         -73.633362     -197.555237      -70.738213
 H         -72.535301     -198.781830      -70.275352
 H         -72.088989     -197.850647      -67.954544
 H         -71.769539     -196.739944      -69.253357
