20
 generated by VMD
 C         -74.940659     -201.855698      -66.438683
 N         -74.409538     -201.225342      -65.605072
 H         -76.415466     -199.083633      -68.733429
 H         -75.232758     -202.440018      -67.282562
 C         -75.397858     -198.733109      -69.041618
 C         -74.961830     -197.457916      -68.267288
 C         -74.403915     -199.419144      -69.909973
 C         -73.453178     -197.195480      -68.009308
 C         -73.235062     -198.391815      -70.288559
 C         -72.513023     -197.797363      -69.011200
 H         -75.484062     -197.462585      -67.285713
 H         -75.376183     -196.444397      -68.782295
 H         -73.971161     -200.283340      -69.364014
 H         -74.973717     -199.585983      -70.871063
 H         -73.140839     -197.427933      -66.930870
 H         -73.259506     -196.149246      -68.207489
 H         -73.737099     -197.464920      -70.784294
 H         -72.498703     -198.811264      -70.991707
 H         -71.814209     -198.563873      -68.424576
 H         -71.808968     -197.117325      -69.448151
