20
 generated by VMD
 C         -15.196033      -46.621918       -6.099132
 N         -15.023998      -47.305141       -5.230453
 H         -15.934347      -45.823906       -9.538921
 H         -14.813118      -45.758823      -11.005571
 C         -15.854876      -45.727669      -10.669147
 C         -16.407944      -44.353176      -11.109958
 C         -16.739834      -46.786461      -11.318283
 C         -16.510431      -44.025757      -12.601501
 C         -16.724993      -46.497227      -12.857998
 C         -17.291649      -45.145485      -13.305647
 H         -15.826540      -43.622459      -10.549330
 H         -17.420069      -44.316513      -10.716556
 H         -16.206459      -47.730907      -11.157404
 H         -17.751059      -46.815765      -10.964195
 H         -15.540360      -44.003906      -13.108994
 H         -17.022238      -43.064594      -12.681335
 H         -17.293009      -47.326199      -13.459838
 H         -15.697081      -46.556911      -13.214003
 H         -17.242884      -45.075790      -14.450504
 H         -18.368603      -45.045780      -13.103518
