20
 generated by VMD
 C         -57.485706     -162.875961      -56.331413
 N         -57.127243     -162.255127      -57.293449
 H         -59.626728     -164.219315      -55.143440
 H         -57.837608     -163.406250      -55.475918
 C         -60.669216     -164.508438      -54.815086
 C         -60.985764     -164.460129      -53.432396
 C         -61.692051     -164.690002      -55.817184
 C         -62.342880     -163.855225      -53.072987
 C         -62.780624     -163.670044      -55.512947
 C         -63.348755     -163.842911      -54.155060
 H         -60.260162     -164.054916      -52.808189
 H         -60.927246     -165.491776      -53.103718
 H         -61.249516     -164.428345      -56.879848
 H         -61.954220     -165.755875      -55.898346
 H         -62.185760     -162.809525      -52.917667
 H         -62.735371     -164.259933      -52.190418
 H         -63.502651     -163.691360      -56.397465
 H         -62.342670     -162.573715      -55.686089
 H         -63.951649     -162.890289      -53.952679
 H         -63.956684     -164.781540      -54.179180
