20
 generated by VMD
 C         -31.033148      -75.163673      -21.516127
 N         -31.953032      -75.798515      -21.722931
 H         -28.445457      -76.062912      -20.705036
 H         -30.348547      -74.639786      -20.814875
 C         -27.441389      -75.833694      -21.081919
 C         -26.723551      -76.895355      -21.844007
 C         -26.665445      -74.606003      -20.693634
 C         -25.725060      -76.361946      -22.827763
 C         -25.676718      -74.164932      -21.651569
 C         -24.816654      -75.231224      -22.291965
 H         -27.464432      -77.418861      -22.258450
 H         -26.135843      -77.423653      -21.088366
 H         -27.437716      -73.853287      -20.378122
 H         -26.198816      -74.778862      -19.762575
 H         -26.338045      -75.875305      -23.576744
 H         -25.144785      -77.087799      -23.350304
 H         -25.065578      -73.507797      -21.087650
 H         -26.161161      -73.647690      -22.430094
 H         -24.303055      -74.648666      -23.054033
 H         -24.228149      -75.780640      -21.541637
