20
 generated by VMD
 C         -79.214081     -209.167633      -76.827766
 N         -79.018387     -209.945480      -75.997536
 H         -77.741150     -209.700867      -73.470932
 H         -79.410133     -208.403183      -77.639374
 C         -78.101707     -210.347916      -72.725471
 C         -77.122223     -210.862289      -71.637611
 C         -79.199104     -211.421722      -73.081573
 C         -77.910301     -211.543503      -70.383377
 C         -79.960411     -211.896683      -71.767754
 C         -78.965240     -212.580292      -70.757622
 H         -76.631851     -209.999603      -71.292862
 H         -76.459122     -211.569519      -72.047897
 H         -79.892418     -210.862549      -73.813721
 H         -78.673889     -212.215988      -73.657562
 H         -78.320312     -210.788574      -69.727051
 H         -77.222519     -212.026962      -69.696281
 H         -80.656158     -212.622589      -72.112259
 H         -80.437141     -210.929504      -71.264839
 H         -79.638443     -212.931885      -69.990433
 H         -78.462746     -213.448746      -71.196617
