20
 generated by VMD
 C         -20.104851      -61.631550      -16.406658
 N         -19.763803      -61.085796      -17.393858
 H         -21.478355      -64.679863      -17.338381
 H         -20.200663      -62.149567      -15.553092
 C         -22.558382      -64.406769      -17.297033
 C         -23.399311      -63.747868      -18.403305
 C         -23.278429      -64.307617      -16.008764
 C         -24.582602      -64.647163      -18.714172
 C         -24.684063      -65.118973      -16.292450
 C         -25.532551      -64.816467      -17.558147
 H         -22.810707      -63.662464      -19.312857
 H         -23.631533      -62.715767      -18.224331
 H         -22.704655      -64.750580      -15.230926
 H         -23.592318      -63.338074      -15.715712
 H         -24.198046      -65.628357      -18.910261
 H         -25.167149      -64.192680      -19.545656
 H         -25.376684      -64.987061      -15.452402
 H         -24.370569      -66.184319      -16.325039
 H         -26.361574      -65.572845      -17.771021
 H         -25.982683      -63.790993      -17.288095
