20
 generated by VMD
 C         -40.576454     -100.254097      -30.318623
 N         -41.252449     -100.461754      -29.377825
 H         -37.432129     -100.813232      -30.586843
 H         -40.041107      -99.806839      -31.097988
 C         -36.528557     -100.321251      -30.757149
 C         -36.110703      -99.968536      -32.260880
 C         -35.289959     -100.257668      -29.822054
 C         -35.166199      -98.685768      -32.466042
 C         -34.472717      -98.927834      -30.116894
 C         -33.949097      -98.934990      -31.544495
 H         -37.044044      -99.969284      -32.864807
 H         -35.548149     -100.840469      -32.575722
 H         -35.495953     -100.327187      -28.748171
 H         -34.684879     -101.111732      -30.074413
 H         -35.620922      -97.829277      -32.036888
 H         -34.773449      -98.506935      -33.425957
 H         -33.694725      -98.745453      -29.448994
 H         -35.069244      -97.995956      -30.010189
 H         -33.110527      -98.120102      -31.725893
 H         -33.340225      -99.843277      -31.693703
