20
 generated by VMD
 C         -79.501144     -205.360535      -70.938232
 N         -80.669708     -205.569580      -71.055717
 H         -77.154221     -202.828705      -69.387817
 H         -78.450462     -205.104218      -71.074844
 C         -76.057915     -202.992523      -69.542839
 C         -75.383369     -202.093475      -70.548203
 C         -75.317146     -204.217636      -69.177238
 C         -73.909393     -201.894653      -70.184486
 C         -73.794945     -204.101105      -69.168907
 C         -73.070175     -203.201508      -70.240669
 H         -75.940018     -201.144653      -70.374191
 H         -75.582016     -202.386078      -71.596619
 H         -75.825409     -204.734695      -68.376770
 H         -75.531303     -205.026733      -69.901848
 H         -73.750168     -201.429092      -69.206512
 H         -73.456924     -201.238266      -70.887619
 H         -73.297256     -205.096237      -69.359741
 H         -73.423050     -203.822250      -68.197693
 H         -72.100929     -202.977615      -70.007347
 H         -73.027939     -203.659424      -71.231743
