20
 generated by VMD
 C         -20.509371      -61.698086      -17.358351
 N         -19.496546      -61.269810      -17.014378
 H         -21.749714      -64.847656      -16.708134
 H         -21.316057      -61.967484      -17.898941
 C         -22.777285      -65.070930      -17.048437
 C         -23.093719      -64.253044      -18.250776
 C         -23.850641      -65.350548      -16.026628
 C         -24.389715      -64.678978      -18.829884
 C         -25.292906      -65.518929      -16.624537
 C         -25.484295      -64.540062      -17.833900
 H         -22.243462      -64.497787      -18.952562
 H         -22.962496      -63.085991      -18.046001
 H         -23.555582      -66.220802      -15.422518
 H         -23.904453      -64.468636      -15.220595
 H         -24.242945      -65.734367      -19.164452
 H         -24.599154      -64.006119      -19.677320
 H         -26.021294      -65.249687      -15.891403
 H         -25.342827      -66.533363      -17.036516
 H         -26.386547      -64.819214      -18.314066
 H         -25.450235      -63.506084      -17.374716
