20
 generated by VMD
 C         -65.762756     -177.657104      -56.865807
 N         -66.170944     -176.588455      -56.954037
 H         -64.988945     -175.767303      -59.347061
 H         -65.421356     -178.640366      -56.658794
 C         -64.640053     -174.652390      -59.409550
 C         -65.446999     -173.654129      -58.609074
 C         -63.542530     -174.262390      -60.297344
 C         -65.202072     -172.105133      -59.045616
 C         -63.178791     -172.793854      -60.259911
 C         -64.303581     -171.808777      -60.200619
 H         -65.111969     -173.768234      -57.458454
 H         -66.483002     -173.945145      -58.491570
 H         -62.579338     -174.747269      -60.036060
 H         -63.489624     -174.622589      -61.316742
 H         -64.886810     -171.673340      -58.082657
 H         -66.230644     -171.727264      -59.111698
 H         -62.557552     -172.618240      -61.103130
 H         -62.528103     -172.532516      -59.396931
 H         -63.990730     -170.802902      -60.401726
 H         -64.817772     -172.127350      -61.174225
