20
 generated by VMD
 C         -20.254639      -64.149597      -16.416790
 N         -19.870026      -63.311321      -17.107677
 H         -23.784376      -63.195992      -17.141502
 H         -20.653585      -65.100197      -15.965063
 C         -24.068285      -64.186630      -17.625504
 C         -24.503990      -64.342484      -19.033007
 C         -24.243010      -65.237709      -16.648802
 C         -24.682291      -65.766830      -19.538572
 C         -24.751465      -66.604485      -17.158236
 C         -25.561340      -66.643311      -18.483255
 H         -23.612005      -63.906033      -19.658516
 H         -25.536333      -63.961765      -19.206470
 H         -23.185421      -65.422951      -16.262627
 H         -24.796522      -64.875694      -15.774352
 H         -23.732574      -66.319824      -19.573769
 H         -25.177643      -65.792664      -20.489168
 H         -25.427088      -66.978760      -16.363552
 H         -23.896341      -67.278755      -17.211294
 H         -25.865507      -67.718193      -18.813942
 H         -26.539474      -66.184547      -18.382629
