20
 generated by VMD
 C         -50.455906     -129.358795      -43.574604
 N         -50.847569     -129.632950      -44.607441
 H         -48.917744     -127.723442      -40.311085
 H         -50.097088     -129.047607      -42.614834
 C         -47.928562     -128.123138      -40.575031
 C         -47.364605     -129.495911      -40.389912
 C         -46.963467     -127.021370      -40.661701
 C         -46.299526     -129.794586      -41.407238
 C         -45.824356     -127.350006      -41.674812
 C         -45.163593     -128.689682      -41.514214
 H         -48.173557     -130.269928      -40.569435
 H         -47.008945     -129.702713      -39.419346
 H         -47.285137     -126.116638      -40.923904
 H         -46.470623     -126.855606      -39.645092
 H         -46.708992     -129.948074      -42.416122
 H         -45.912880     -130.783112      -41.293018
 H         -45.080936     -126.509613      -41.626972
 H         -46.244827     -127.431839      -42.693871
 H         -44.645672     -128.947296      -42.411682
 H         -44.601566     -128.741028      -40.568806
