20
 generated by VMD
 C         -47.828461     -139.614883      -46.020111
 N         -46.727737     -139.221436      -46.071026
 H         -50.783623     -139.066879      -44.786331
 H         -48.772308     -140.111923      -46.057274
 C         -51.785664     -139.090240      -45.224594
 C         -51.900211     -139.388565      -46.731441
 C         -53.200844     -138.810333      -44.587997
 C         -53.070473     -140.372849      -47.125160
 C         -54.231789     -139.862625      -44.889484
 C         -54.399811     -140.045242      -46.446266
 H         -50.945427     -139.684952      -47.191803
 H         -52.042088     -138.464188      -47.272671
 H         -53.106541     -138.748444      -43.523930
 H         -53.691200     -137.871323      -44.920635
 H         -52.747143     -141.407639      -46.850082
 H         -53.141071     -140.398804      -48.213974
 H         -55.144508     -139.616364      -44.292812
 H         -53.977245     -140.813095      -44.463318
 H         -54.987022     -140.908661      -46.589977
 H         -54.610466     -139.088959      -46.980621
