20
 generated by VMD
 C         -58.053295     -165.323929      -56.327431
 N         -57.541710     -166.375702      -56.525188
 H         -60.563667     -164.802017      -54.185734
 H         -58.451324     -164.299377      -56.249485
 C         -61.473083     -165.069992      -54.701595
 C         -61.804932     -166.542877      -55.049980
 C         -62.015362     -164.030685      -55.634464
 C         -63.263294     -166.760925      -55.305027
 C         -63.492496     -164.272202      -55.747025
 C         -64.019112     -165.702377      -56.220886
 H         -61.388607     -167.104141      -54.214760
 H         -61.260128     -166.642761      -56.026176
 H         -61.784550     -162.985168      -55.262318
 H         -61.533936     -164.061920      -56.596539
 H         -63.673420     -166.757736      -54.319489
 H         -63.443813     -167.786530      -55.727962
 H         -64.020378     -163.579269      -56.537701
 H         -64.004303     -164.211563      -54.759720
 H         -65.127754     -165.863602      -56.104851
 H         -63.870518     -166.018921      -57.304798
