20
 generated by VMD
 C         -36.841751      -98.390129      -25.774055
 N         -37.009132      -98.384895      -26.919874
 H         -36.008648      -96.469719      -28.578798
 H         -36.695698      -98.343040      -24.757309
 C         -35.617729      -95.814575      -29.335287
 C         -35.725983      -96.558586      -30.669859
 C         -34.476669      -94.941849      -29.154800
 C         -35.094124      -95.825371      -31.891314
 C         -33.941086      -94.172493      -30.475433
 C         -33.676979      -95.176804      -31.553802
 H         -36.743977      -96.791969      -30.806108
 H         -35.258579      -97.555717      -30.596848
 H         -34.685490      -94.160469      -28.411911
 H         -33.571289      -95.534081      -28.819330
 H         -35.675766      -95.040070      -32.314838
 H         -34.912876      -96.585892      -32.721138
 H         -33.043213      -93.595146      -30.203138
 H         -34.660782      -93.431419      -30.796154
 H         -33.063278      -94.628052      -32.455650
 H         -33.080692      -95.903023      -31.099270
