20
 generated by VMD
 C         -33.699654      -96.098877      -25.268204
 N         -33.372684      -97.142105      -25.619125
 H         -34.660027      -94.366020      -27.521206
 H         -34.014366      -95.147766      -24.883518
 C         -34.793297      -93.778564      -28.409636
 C         -36.028759      -94.103447      -29.165079
 C         -33.531906      -93.459923      -29.160538
 C         -36.137642      -93.333717      -30.523067
 C         -33.850224      -92.640999      -30.387585
 C         -34.814610      -93.258682      -31.383209
 H         -36.845161      -93.807953      -28.499380
 H         -36.211597      -95.216148      -29.382696
 H         -32.860012      -92.997002      -28.426077
 H         -33.003990      -94.423119      -29.378523
 H         -36.459881      -92.320656      -30.297846
 H         -37.057308      -93.811249      -31.013849
 H         -32.989216      -92.365067      -30.943916
 H         -34.341133      -91.703781      -29.919661
 H         -35.027885      -92.747627      -32.240700
 H         -34.563278      -94.299957      -31.598234
