20
 generated by VMD
 C          -1.561818      -13.179318        0.704394
 N          -0.622064      -13.723261        0.445815
 H          -4.117309      -14.186545        2.150230
 H          -4.759798      -13.961209        0.507988
 C          -4.816052      -14.598354        1.408264
 C          -6.146917      -14.623679        2.156565
 C          -4.333140      -16.028608        1.017957
 C          -7.193430      -15.473740        1.450989
 C          -5.458775      -16.778179        0.294050
 C          -6.779855      -16.852587        1.109855
 H          -6.490892      -13.626434        2.331280
 H          -6.030489      -14.999272        3.173171
 H          -3.445158      -15.928238        0.312807
 H          -3.880054      -16.622189        1.842065
 H          -7.417160      -14.975727        0.464792
 H          -8.177652      -15.461703        1.978989
 H          -5.226499      -17.772736       -0.196127
 H          -5.726451      -16.155941       -0.579965
 H          -7.552953      -17.384350        0.555590
 H          -6.592265      -17.514145        1.951212
