20
 generated by VMD
 C         -78.756660     -204.184036      -70.393105
 N         -79.882370     -204.603195      -70.495071
 H         -76.572418     -203.474838      -68.607796
 H         -77.738258     -203.776703      -70.332214
 C         -75.771339     -203.218948      -69.224434
 C         -75.734886     -201.810913      -69.815697
 C         -74.455536     -203.894882      -68.949020
 C         -74.638756     -201.607361      -70.823753
 C         -73.258652     -202.980438      -68.981537
 C         -73.277634     -202.167114      -70.278984
 H         -75.669548     -201.120514      -68.993401
 H         -76.676033     -201.594666      -70.384918
 H         -74.544464     -204.289261      -67.949379
 H         -74.359329     -204.692230      -69.628288
 H         -74.530838     -200.559448      -70.910500
 H         -74.874123     -201.994370      -71.810760
 H         -72.229309     -203.495331      -68.793266
 H         -73.318398     -202.147278      -68.299522
 H         -72.428085     -201.392349      -70.285965
 H         -72.985794     -202.813477      -71.171684
