20
 generated by VMD
 C         -22.700888      -68.396423      -16.661942
 N         -22.753931      -69.021233      -15.689562
 H         -24.169140      -65.693741      -18.992367
 H         -22.487843      -67.724236      -17.476477
 C         -24.604937      -66.679085      -19.075397
 C         -23.931709      -67.520653      -20.239170
 C         -26.120199      -66.849136      -18.908497
 C         -24.460529      -68.972038      -20.507671
 C         -26.538336      -68.252693      -19.308716
 C         -26.012806      -68.956261      -20.494047
 H         -22.892340      -67.521622      -20.184128
 H         -24.002184      -66.974777      -21.182270
 H         -26.455511      -66.341446      -17.941402
 H         -26.503002      -66.164505      -19.681276
 H         -24.241570      -69.781723      -19.737673
 H         -24.171530      -69.305481      -21.533665
 H         -27.621067      -68.048698      -19.533524
 H         -26.465477      -68.914429      -18.424608
 H         -26.394419      -69.958351      -20.633204
 H         -26.454163      -68.453247      -21.334612
