20
 generated by VMD
 C         -10.217863      -33.159290       -9.242185
 N         -11.166554      -32.529167       -9.117105
 H         -11.852242      -36.626720       -8.139589
 H         -12.148746      -36.079956       -6.475089
 C         -12.416815      -36.874420       -7.173505
 C         -11.994296      -38.173676       -6.478740
 C         -13.950705      -36.998047       -7.429977
 C         -12.744064      -38.318504       -5.125364
 C         -14.765907      -37.186302       -6.173299
 C         -14.248761      -38.442104       -5.422981
 H         -10.906355      -38.255733       -6.262900
 H         -12.188654      -39.073841       -7.046084
 H         -14.266727      -36.083309       -8.005760
 H         -14.109458      -37.766571       -8.195584
 H         -12.375478      -37.470909       -4.502381
 H         -12.463734      -39.207211       -4.619717
 H         -15.817294      -37.372040       -6.444375
 H         -14.737930      -36.329609       -5.452489
 H         -14.841807      -38.392178       -4.479930
 H         -14.488110      -39.359009       -5.930020
