20
 generated by VMD
 C         -49.467426     -132.191727      -46.410069
 N         -50.283443     -132.129227      -47.238781
 H         -47.578175     -133.976578      -44.227737
 H         -48.569515     -132.154282      -45.749870
 C         -48.537067     -134.269241      -43.838993
 C         -49.032436     -135.786484      -43.858383
 C         -49.164944     -133.247101      -42.977165
 C         -49.831444     -136.080170      -42.581352
 C         -49.853992     -133.795776      -41.779697
 C         -50.727863     -134.975494      -42.164303
 H         -48.216915     -136.466965      -44.058495
 H         -49.819008     -135.901428      -44.681259
 H         -48.393379     -132.620651      -42.711857
 H         -49.893387     -132.711777      -43.541603
 H         -49.062935     -136.273209      -41.860722
 H         -50.166252     -137.069565      -42.654247
 H         -50.595535     -133.063522      -41.294144
 H         -49.088505     -134.033401      -40.969322
 H         -51.289806     -135.445602      -41.316483
 H         -51.294380     -134.740936      -43.040401
