20
 generated by VMD
 C         -43.212677     -121.141258      -35.544094
 N         -43.054543     -120.568672      -34.553009
 H         -44.395435     -121.826149      -38.965477
 H         -43.645790     -121.651093      -36.442455
 C         -44.456062     -120.798599      -39.128811
 C         -43.204880     -120.118317      -39.683781
 C         -45.462936     -119.966682      -38.393951
 C         -43.637119     -118.982445      -40.623215
 C         -45.869560     -118.855873      -39.369053
 C         -44.721607     -118.081963      -39.927429
 H         -42.571747     -120.826668      -40.332226
 H         -42.651279     -119.717621      -38.775768
 H         -46.448765     -120.372505      -38.125523
 H         -45.108852     -119.454041      -37.524082
 H         -44.204216     -119.376228      -41.497082
 H         -42.720383     -118.396126      -40.902519
 H         -46.405060     -118.042618      -38.849091
 H         -46.379536     -119.255615      -40.173527
 H         -44.982685     -117.377815      -40.702858
 H         -44.249451     -117.667114      -39.071781
