20
 generated by VMD
 C         -69.271645     -180.369919      -59.684631
 N         -68.731667     -181.087646      -60.426575
 H         -67.126862     -177.464203      -59.741970
 H         -69.775734     -179.634079      -59.092628
 C         -66.306801     -176.910385      -59.973995
 C         -66.033752     -176.713150      -61.337074
 C         -65.356125     -176.954727      -58.867504
 C         -64.893730     -175.771820      -61.592449
 C         -64.080330     -176.078690      -59.155064
 C         -63.701180     -176.076996      -60.676918
 H         -66.932182     -176.410736      -61.871941
 H         -65.594666     -177.653671      -61.654980
 H         -65.875999     -176.473846      -58.017624
 H         -65.067322     -177.972321      -58.505592
 H         -65.187477     -174.634048      -61.396896
 H         -64.576080     -175.784668      -62.699360
 H         -63.175556     -176.333344      -58.537720
 H         -64.180252     -175.011093      -58.814415
 H         -62.923664     -175.327347      -60.656948
 H         -63.298409     -177.053879      -60.947514
