20
 generated by VMD
 C         -20.008617      -50.189808       -9.997423
 N         -19.968191      -51.228439       -9.540052
 H         -16.620508      -48.561600      -10.042525
 H         -19.611414      -49.044327      -10.327175
 C         -16.946604      -48.796429      -11.023491
 C         -15.984541      -49.763622      -11.614166
 C         -17.617109      -47.828114      -11.948383
 C         -16.157366      -50.164146      -13.098349
 C         -17.786282      -48.435879      -13.348492
 C         -16.564751      -49.008926      -14.000266
 H         -16.086300      -50.723915      -11.011316
 H         -15.033061      -49.268394      -11.520985
 H         -18.617790      -47.653275      -11.516496
 H         -17.056370      -46.858944      -11.940632
 H         -17.041967      -50.797905      -13.076056
 H         -15.254746      -50.642467      -13.436194
 H         -18.161671      -47.597485      -14.003683
 H         -18.488663      -49.221653      -13.261768
 H         -16.621338      -49.351265      -15.006349
 H         -15.818499      -48.240761      -14.095835
