20
 generated by VMD
 C         -61.557644     -155.979446      -54.601700
 N         -60.955994     -155.319138      -53.926174
 H         -58.850384     -154.896942      -51.967442
 H         -62.159447     -156.641937      -55.214989
 C         -57.859539     -155.155106      -51.558399
 C         -57.495705     -154.505508      -50.279785
 C         -56.758919     -155.594604      -52.501762
 C         -56.248955     -155.029816      -49.703846
 C         -55.611656     -156.171402      -51.797787
 C         -55.098099     -155.260132      -50.741074
 H         -58.395924     -154.600281      -49.651051
 H         -57.327709     -153.499908      -50.396233
 H         -57.385311     -156.350754      -53.171394
 H         -56.295734     -154.825134      -53.105930
 H         -56.465164     -155.933975      -49.133816
 H         -55.853352     -154.393997      -48.798866
 H         -54.803883     -156.449707      -52.579311
 H         -55.705482     -157.107697      -51.331188
 H         -54.305168     -155.825821      -50.106716
 H         -54.684822     -154.307068      -51.090004
