20
 generated by VMD
 C         -40.918560     -104.180069      -36.496464
 N         -41.711758     -105.015106      -36.327831
 H         -38.733295     -104.677666      -33.513382
 H         -40.187946     -103.391762      -36.803471
 C         -38.599960     -105.632851      -33.087639
 C         -37.274136     -105.774803      -32.345020
 C         -39.425884     -106.858597      -33.438820
 C         -37.291759     -106.693977      -31.173933
 C         -39.533627     -107.675896      -32.189915
 C         -38.137878     -107.944450      -31.618525
 H         -37.128132     -104.785675      -31.988741
 H         -36.505375     -106.192383      -32.998714
 H         -40.314785     -106.384705      -33.898663
 H         -38.904266     -107.429749      -34.207329
 H         -37.856583     -106.419807      -30.273264
 H         -36.210468     -107.019356      -30.949860
 H         -39.969776     -108.724716      -32.390106
 H         -40.272579     -107.276085      -31.506943
 H         -38.324066     -108.562065      -30.801586
 H         -37.417393     -108.548050      -32.270195
