20
 generated by VMD
 C         -58.809944     -161.003082      -56.723972
 N         -58.563282     -160.082031      -57.327431
 H         -58.841072     -163.875275      -54.941071
 H         -59.104027     -161.825943      -56.109596
 C         -59.726543     -163.476044      -54.413944
 C         -59.618942     -163.338318      -52.918541
 C         -61.111435     -163.403870      -54.988754
 C         -60.357559     -162.070160      -52.457516
 C         -61.930180     -162.378021      -54.330605
 C         -61.837852     -162.303329      -52.818546
 H         -58.568916     -163.076736      -52.755054
 H         -60.040714     -164.214294      -52.379807
 H         -61.050415     -163.140732      -56.012932
 H         -61.520901     -164.437485      -55.012135
 H         -59.884586     -161.045212      -52.813736
 H         -60.364449     -162.053726      -51.343781
 H         -63.014908     -162.505066      -54.369617
 H         -61.704502     -161.439117      -54.864185
 H         -62.625614     -161.613205      -52.429440
 H         -62.179089     -163.306061      -52.501255
