20
 generated by VMD
 C         -68.415092     -188.169464      -66.678291
 N         -68.667870     -189.262482      -66.897011
 H         -68.304466     -187.345886      -63.588165
 H         -68.332535     -187.107590      -66.542824
 C         -69.307594     -187.702759      -63.446819
 C         -69.501251     -189.214096      -63.422089
 C         -70.468437     -186.751724      -63.174389
 C         -70.806679     -189.674683      -63.859406
 C         -71.773209     -187.274048      -63.808472
 C         -71.886230     -188.717087      -63.424911
 H         -69.401474     -189.446198      -62.392918
 H         -68.723610     -189.727188      -63.882866
 H         -70.562675     -186.679337      -62.070469
 H         -70.232513     -185.765930      -63.480827
 H         -70.991020     -190.666321      -63.490875
 H         -70.831680     -189.728928      -64.949432
 H         -71.749107     -187.136292      -64.913620
 H         -72.731453     -186.833771      -63.611504
 H         -72.058220     -188.986801      -62.349937
 H         -72.838005     -189.138168      -63.857414
