20
 generated by VMD
 C          -1.897308      -16.042692        1.972188
 N          -1.797478      -15.292742        2.797856
 H          -4.235996      -16.067955        0.287499
 H          -4.392273      -17.121592       -1.167444
 C          -4.938386      -16.693298       -0.276055
 C          -6.124401      -15.794353       -0.587867
 C          -5.342107      -17.757980        0.758090
 C          -7.393036      -16.532419       -0.957919
 C          -6.513656      -18.589794        0.213140
 C          -7.751452      -17.612013        0.036913
 H          -5.907686      -15.262633       -1.568660
 H          -6.262452      -15.084521        0.217597
 H          -4.423799      -18.437513        0.940808
 H          -5.642629      -17.209921        1.724285
 H          -7.215049      -16.997326       -1.924274
 H          -8.137834      -15.808122       -1.081833
 H          -6.755000      -19.379728        0.942173
 H          -6.338945      -19.072981       -0.722009
 H          -8.694354      -18.139864       -0.145049
 H          -7.843708      -17.224459        1.078500
