20
 generated by VMD
 C         -12.972541      -28.794971       -6.134389
 N         -13.105537      -28.747072       -7.240949
 H         -12.102666      -31.021006       -4.954079
 H         -10.748752      -29.802620       -4.871258
 C         -11.045355      -30.868364       -4.746101
 C         -10.138410      -31.678488       -5.625847
 C         -10.833421      -31.117228       -3.278847
 C          -8.684137      -31.479511       -5.124866
 C          -9.449184      -31.178694       -2.804239
 C          -8.577097      -32.021633       -3.695406
 H         -10.305355      -31.385981       -6.757325
 H         -10.307449      -32.743263       -5.563734
 H         -11.402209      -30.341602       -2.729376
 H         -11.285383      -32.125114       -3.016050
 H          -8.462000      -30.396931       -5.089828
 H          -8.005636      -31.977024       -5.866633
 H          -9.373133      -31.490105       -1.780066
 H          -9.059083      -30.122490       -2.802822
 H          -7.610123      -31.827780       -3.330244
 H          -8.936815      -33.057419       -3.653297
