20
 generated by VMD
 C         -49.992924     -130.593903      -45.793919
 N         -50.913029     -129.973511      -45.457951
 H         -47.495403     -132.085205      -44.364902
 H         -49.473469     -131.464340      -46.236046
 C         -48.048817     -132.172012      -43.431110
 C         -48.513371     -133.471756      -42.792286
 C         -48.436726     -130.883240      -42.772068
 C         -47.970589     -133.449966      -41.364342
 C         -47.777294     -130.914871      -41.381821
 C         -48.196465     -132.094604      -40.632858
 H         -48.061722     -134.313965      -43.319622
 H         -49.602005     -133.553680      -42.983086
 H         -47.997452     -129.965393      -43.324627
 H         -49.467758     -130.632675      -42.784100
 H         -46.874348     -133.593216      -41.324078
 H         -48.328014     -134.284668      -40.757927
 H         -48.044060     -129.976837      -40.945477
 H         -46.656258     -130.711258      -41.556931
 H         -47.406235     -132.101456      -39.820240
 H         -49.218430     -132.014404      -40.268639
