20
 generated by VMD
 C         -59.296413     -158.233475      -56.016384
 N         -58.933884     -158.600647      -57.091236
 H         -60.584255     -157.983765      -52.450684
 H         -59.728962     -157.891769      -55.044228
 C         -60.016689     -158.722626      -53.027187
 C         -58.495701     -158.636948      -52.654228
 C         -60.587017     -160.129120      -53.289047
 C         -58.069473     -159.600632      -51.543175
 C         -60.030304     -161.071991      -52.170013
 C         -58.452179     -161.036331      -51.975838
 H         -58.244621     -157.593628      -52.236439
 H         -57.927174     -158.924454      -53.545670
 H         -61.756073     -160.148758      -53.287556
 H         -60.296387     -160.616089      -54.254700
 H         -58.533100     -159.339874      -50.551231
 H         -56.959259     -159.482849      -51.438362
 H         -60.295254     -162.176285      -52.328072
 H         -60.475567     -160.790070      -51.184273
 H         -58.143093     -161.792313      -51.320580
 H         -58.082409     -161.307999      -52.967194
