20
 generated by VMD
 C         -49.427864     -132.160782      -46.394554
 N         -50.306789     -132.159485      -47.242363
 H         -47.652847     -134.161926      -44.439575
 H         -48.954514     -131.957321      -45.417362
 C         -48.547878     -134.296417      -43.865047
 C         -49.042664     -135.675323      -43.900681
 C         -49.136124     -133.182877      -42.955669
 C         -49.752926     -136.102524      -42.586414
 C         -49.835316     -133.795853      -41.736523
 C         -50.716007     -134.963333      -42.130402
 H         -48.168919     -136.296127      -43.882069
 H         -49.533669     -135.879883      -44.932274
 H         -48.480564     -132.478821      -42.627457
 H         -49.861607     -132.616470      -43.537834
 H         -49.022125     -136.077377      -41.801128
 H         -50.377144     -136.954651      -42.584747
 H         -50.372295     -132.883667      -41.270294
 H         -49.114765     -134.140747      -40.961704
 H         -51.339657     -135.128815      -41.252483
 H         -51.582790     -134.706329      -42.788780
