20
 generated by VMD
 C         -67.960991     -178.457855      -58.008293
 N         -66.941414     -178.463455      -57.477768
 H         -65.101112     -176.258438      -58.716904
 H         -68.940651     -178.399933      -58.485706
 C         -64.980026     -175.689224      -59.593689
 C         -65.988892     -174.689529      -59.975151
 C         -63.567844     -175.461563      -59.948765
 C         -65.363899     -173.220551      -59.793785
 C         -63.048798     -174.070511      -59.888180
 C         -64.048256     -173.134903      -60.567909
 H         -66.917816     -174.759750      -59.321114
 H         -66.298759     -174.941330      -60.985233
 H         -62.867439     -175.995621      -59.191624
 H         -63.356422     -175.831573      -60.971260
 H         -65.353348     -172.852509      -58.724674
 H         -66.077171     -172.439667      -60.185177
 H         -62.029068     -174.150421      -60.283257
 H         -62.852535     -173.519379      -58.960831
 H         -63.547646     -172.197495      -60.314060
 H         -64.062973     -173.330765      -61.688545
