20
 generated by VMD
 C         -70.685364     -197.179810      -64.988937
 N         -69.861099     -197.697678      -65.630394
 H         -72.953262     -196.612991      -66.043518
 H         -71.445526     -196.820160      -64.296364
 C         -73.416466     -195.855438      -66.604820
 C         -72.992027     -194.372147      -66.226654
 C         -74.358437     -196.074066      -67.727821
 C         -72.683235     -193.493484      -67.439514
 C         -74.747246     -194.794098      -68.445511
 C         -73.464066     -194.004791      -68.697777
 H         -72.137520     -194.375473      -65.543846
 H         -73.753349     -193.997711      -65.593613
 H         -74.058098     -196.863800      -68.392609
 H         -75.323334     -196.418182      -67.321335
 H         -71.619545     -193.567841      -67.711899
 H         -72.857155     -192.401657      -67.258926
 H         -75.372849     -194.069824      -67.901360
 H         -75.202095     -195.111954      -69.372025
 H         -72.840576     -194.411530      -69.389320
 H         -73.731247     -193.102219      -69.402451
