20
 generated by VMD
 C         -57.462288     -164.172562      -56.666779
 N         -57.264027     -163.139191      -57.234364
 H         -59.758675     -164.836319      -54.490223
 H         -57.575348     -165.122406      -56.181709
 C         -60.861595     -165.091583      -54.686802
 C         -61.710392     -165.345184      -53.517433
 C         -61.367371     -164.358536      -55.897030
 C         -63.201511     -164.860214      -53.529194
 C         -62.800720     -163.792023      -55.856945
 C         -63.772533     -164.684784      -55.020798
 H         -61.220509     -165.044159      -52.586723
 H         -61.700466     -166.412048      -53.517105
 H         -60.694981     -163.561356      -56.230885
 H         -61.421913     -165.102402      -56.766720
 H         -63.295334     -163.920746      -52.976383
 H         -63.648125     -165.639328      -52.984066
 H         -63.109795     -163.748474      -56.940384
 H         -62.720646     -162.687714      -55.494057
 H         -64.783524     -164.329727      -54.937332
 H         -63.801472     -165.701370      -55.441250
