20
 generated by VMD
 C         -68.483566     -185.628098      -66.133560
 N         -69.044312     -186.038696      -67.061996
 H         -69.371513     -183.171310      -63.834248
 H         -68.022217     -185.200119      -65.305313
 C         -69.244316     -183.835434      -62.934505
 C         -70.331596     -184.729065      -62.470074
 C         -67.934738     -183.742813      -62.197071
 C         -69.968498     -185.849045      -61.613281
 C         -67.766891     -184.815308      -61.107616
 C         -68.416367     -186.109360      -61.491016
 H         -70.919411     -185.061279      -63.384384
 H         -71.119125     -184.132339      -61.929256
 H         -67.061470     -183.631683      -62.918957
 H         -67.830162     -182.775330      -61.713818
 H         -70.392998     -186.856262      -61.898354
 H         -70.415977     -185.552109      -60.666714
 H         -68.290749     -184.406677      -60.263798
 H         -66.752930     -185.135757      -60.912533
 H         -68.023415     -186.620361      -62.586441
 H         -68.202820     -186.825272      -60.691334
