20
 generated by VMD
 C         -57.942341     -167.805618      -55.231075
 N         -56.860039     -168.226181      -54.958614
 H         -60.966389     -166.275574      -55.653240
 H         -58.927002     -167.502121      -55.617699
 C         -62.001217     -166.406952      -55.926670
 C         -62.491005     -167.257172      -57.155384
 C         -62.907932     -165.266327      -55.640305
 C         -63.945068     -167.366974      -57.341335
 C         -64.441742     -165.458389      -55.772186
 C         -64.685112     -166.094162      -57.075317
 H         -62.030655     -168.287933      -56.881718
 H         -62.095654     -166.791534      -57.963757
 H         -62.790562     -164.985764      -54.517689
 H         -62.672005     -164.330215      -56.202034
 H         -64.365105     -168.207794      -56.689846
 H         -64.060555     -167.729782      -58.382175
 H         -64.977364     -164.505966      -55.800404
 H         -64.737221     -166.159698      -54.966908
 H         -65.704697     -166.294174      -57.315575
 H         -64.317429     -165.367935      -57.788521
