20
 generated by VMD
 C         -47.251957     -137.841934      -46.174137
 N         -47.249275     -137.167664      -47.072926
 H         -50.480366     -137.184555      -44.120369
 H         -47.373337     -138.558365      -45.364574
 C         -51.306057     -137.486618      -44.727882
 C         -51.391823     -138.136765      -46.062191
 C         -52.623283     -137.242035      -43.898304
 C         -52.181488     -139.453720      -45.911175
 C         -53.391068     -138.506210      -43.865479
 C         -53.550159     -139.281281      -45.306438
 H         -50.391411     -138.444550      -46.492733
 H         -51.934769     -137.531265      -46.717102
 H         -52.305157     -136.869537      -42.886761
 H         -53.218456     -136.443481      -44.492168
 H         -51.690819     -140.101868      -45.149857
 H         -52.248280     -139.793442      -46.915726
 H         -54.408916     -138.290131      -43.579613
 H         -52.811153     -139.300888      -43.220104
 H         -53.945789     -140.278458      -45.023945
 H         -54.195919     -138.666779      -45.879398
