20
 generated by VMD
 C          -1.279277      -10.889685        0.796720
 N          -1.191271       -9.981651        1.391171
 H          -3.629066      -12.818084        0.470413
 H          -4.673353      -12.189395        1.780829
 C          -4.281999      -13.065110        1.325375
 C          -3.462232      -13.946570        2.186957
 C          -5.383646      -13.912508        0.639709
 C          -4.222415      -14.661767        3.261104
 C          -6.253659      -14.689242        1.692023
 C          -5.392162      -15.437529        2.717404
 H          -2.698828      -13.372806        2.606514
 H          -2.934086      -14.655038        1.564314
 H          -6.114430      -13.345396       -0.004592
 H          -4.995959      -14.716550       -0.045047
 H          -4.587802      -13.865301        3.906326
 H          -3.474994      -15.234078        3.777793
 H          -6.896622      -15.414878        1.216291
 H          -6.876041      -13.945177        2.216935
 H          -6.024883      -15.791716        3.594420
 H          -4.976312      -16.322813        2.147418
