20
 generated by VMD
 C         -11.961555      -37.749329       -7.813757
 N         -11.088882      -37.658588       -7.128172
 H         -12.588612      -41.492817       -8.766291
 H         -13.395800      -40.487572       -7.666204
 C         -13.545812      -41.169945       -8.444162
 C         -14.403736      -42.358959       -8.041971
 C         -14.153112      -40.375729       -9.663912
 C         -15.863434      -41.993107       -7.919574
 C         -15.535520      -39.843136       -9.235423
 C         -16.460697      -41.018700       -8.986922
 H         -14.074152      -42.764603       -7.112577
 H         -14.384443      -43.184319       -8.748650
 H         -13.571961      -39.514202       -9.921514
 H         -14.249877      -41.039562      -10.579556
 H         -15.920084      -41.521336       -6.921572
 H         -16.508348      -42.866859       -7.811137
 H         -15.967365      -39.101376       -9.930305
 H         -15.291675      -39.271793       -8.359354
 H         -17.375175      -40.683022       -8.576663
 H         -16.741205      -41.565838       -9.883470
