20
 generated by VMD
 C         -68.604408     -188.225159      -66.782417
 N         -68.539291     -189.388855      -66.754166
 H         -68.281181     -187.406509      -63.155449
 H         -68.496857     -187.174759      -66.677109
 C         -69.265373     -187.721359      -63.429211
 C         -69.485916     -189.188049      -63.353600
 C         -70.427925     -186.848083      -63.142181
 C         -70.865685     -189.624542      -64.093437
 C         -71.690659     -187.337952      -63.775261
 C         -72.094406     -188.831589      -63.537197
 H         -69.542595     -189.634979      -62.375481
 H         -68.557831     -189.470932      -63.841709
 H         -70.550064     -186.616074      -62.097767
 H         -70.249649     -185.778534      -63.449608
 H         -71.001480     -190.730316      -63.917530
 H         -70.757095     -189.399597      -65.125603
 H         -71.829414     -187.183350      -64.847473
 H         -72.476906     -186.618011      -63.387955
 H         -72.200294     -188.959427      -62.399899
 H         -72.986641     -189.010193      -63.950520
