20
 generated by VMD
 C         -56.754814     -150.369995      -47.870457
 N         -57.775940     -150.630966      -48.432846
 H         -53.998207     -148.923950      -47.323933
 H         -55.807056     -150.185547      -47.387470
 C         -54.111942     -148.446899      -48.353432
 C         -53.549007     -149.242462      -49.530930
 C         -54.726540     -147.100128      -48.644180
 C         -54.237999     -149.111450      -50.814995
 C         -55.462738     -147.145508      -50.004761
 C         -54.617649     -147.706955      -50.999538
 H         -53.187988     -150.257278      -49.112747
 H         -52.558666     -148.811768      -49.633083
 H         -55.481953     -146.776016      -47.943356
 H         -53.977108     -146.310959      -48.648632
 H         -55.186199     -149.688538      -50.950401
 H         -53.595119     -149.486023      -51.599346
 H         -55.927425     -146.175537      -50.119282
 H         -56.430691     -147.779114      -49.859833
 H         -55.209358     -147.571869      -51.887016
 H         -53.772346     -147.001389      -51.115204
