20
 generated by VMD
 C         -66.566689     -177.918365      -56.954308
 N         -67.721107     -178.114059      -56.921227
 H         -64.501251     -176.082413      -59.552856
 H         -65.521591     -177.747131      -56.869843
 C         -64.356178     -175.080963      -59.636894
 C         -65.508087     -174.184387      -59.298443
 C         -63.105289     -174.527893      -60.379692
 C         -65.164581     -172.777023      -59.230312
 C         -63.033585     -172.988281      -60.372730
 C         -64.382797     -172.220428      -60.414345
 H         -65.956055     -174.464172      -58.309769
 H         -66.268562     -174.365555      -60.042919
 H         -62.196133     -175.037476      -59.938705
 H         -63.240509     -175.005844      -61.339104
 H         -64.601425     -172.623993      -58.328308
 H         -66.117226     -172.267075      -59.245068
 H         -62.326092     -172.585724      -61.143654
 H         -62.642761     -172.618774      -59.413422
 H         -64.332298     -171.167542      -60.345871
 H         -65.119530     -172.438858      -61.194736
