20
 generated by VMD
 C         -15.307861      -47.551346       -6.164209
 N         -15.506476      -46.679237       -5.490967
 H         -16.354046      -47.055199       -9.916800
 H         -15.129332      -46.823395      -11.064217
 C         -16.202719      -46.545998      -10.883084
 C         -16.424080      -45.036686      -10.878156
 C         -17.071384      -47.238720      -11.934855
 C         -16.265348      -44.435722      -12.237263
 C         -16.885981      -46.643959      -13.336634
 C         -17.110155      -45.111660      -13.307292
 H         -15.721321      -44.559479      -10.201176
 H         -17.414623      -44.801029      -10.522348
 H         -16.825359      -48.265404      -11.907824
 H         -18.099672      -47.061363      -11.626534
 H         -15.205879      -44.399437      -12.484090
 H         -16.668692      -43.426582      -12.133417
 H         -17.493784      -47.035763      -14.121665
 H         -15.767116      -46.759800      -13.571301
 H         -16.922758      -44.704464      -14.296503
 H         -18.162325      -44.886517      -12.988733
