20
 generated by VMD
 C         -27.973448      -83.120621      -27.365961
 N         -27.237635      -83.426765      -26.548965
 H         -31.292221      -84.352097      -26.485903
 H         -28.764185      -82.766884      -28.095896
 C         -31.677923      -85.068291      -25.810419
 C         -31.600908      -84.935860      -24.287910
 C         -32.228268      -86.442596      -26.446161
 C         -32.576599      -85.815323      -23.517166
 C         -33.292656      -87.005188      -25.554234
 C         -32.821388      -87.170593      -24.096046
 H         -31.662708      -83.856918      -23.886930
 H         -30.583160      -85.333206      -24.224665
 H         -32.528412      -86.338974      -27.480762
 H         -31.398142      -87.218269      -26.372894
 H         -33.421352      -85.134789      -23.309380
 H         -32.226017      -85.982361      -22.565840
 H         -33.598553      -87.984360      -25.795252
 H         -34.199352      -86.335587      -25.576128
 H         -33.733597      -87.553421      -23.699135
 H         -32.077469      -87.889641      -24.083294
