20
 generated by VMD
 C         -20.581602      -52.272190       -9.640719
 N         -21.240499      -51.933788      -10.588800
 H         -18.453751      -49.790310      -10.767053
 H         -20.374454      -52.743309       -8.752583
 C         -17.919508      -49.762363      -11.723509
 C         -17.363203      -51.107498      -12.196757
 C         -17.415295      -48.485485      -12.322607
 C         -16.919876      -51.173290      -13.657217
 C         -16.639812      -48.581783      -13.648356
 C         -16.005327      -49.975662      -13.882855
 H         -18.176062      -51.838554      -12.056178
 H         -16.542280      -51.503681      -11.524056
 H         -18.221451      -47.761368      -12.438959
 H         -16.706287      -48.087509      -11.571203
 H         -17.795319      -51.173187      -14.298025
 H         -16.350058      -52.060104      -13.871004
 H         -15.881804      -47.777626      -13.533030
 H         -17.241808      -48.388092      -14.512538
 H         -15.553686      -50.034248      -14.858265
 H         -15.233812      -50.009533      -13.121101
