20
 generated by VMD
 C         -16.150791      -47.640839       -7.001623
 N         -15.990289      -46.550251       -6.876339
 H         -16.742044      -48.134331      -10.122040
 H         -15.347786      -47.727642      -11.177157
 C         -16.413834      -47.485374      -10.965149
 C         -16.446096      -46.037563      -10.560537
 C         -17.327583      -47.722301      -12.195094
 C         -15.952494      -45.115681      -11.708478
 C         -17.010796      -46.717133      -13.353926
 C         -16.881388      -45.254250      -12.919606
 H         -15.753891      -45.964870       -9.718098
 H         -17.370703      -45.685013      -10.191896
 H         -17.194824      -48.715591      -12.583959
 H         -18.357578      -47.660484      -11.915614
 H         -14.943355      -45.381836      -12.019216
 H         -15.931668      -44.111267      -11.313753
 H         -17.683733      -46.871750      -14.242345
 H         -15.928363      -47.022907      -13.610462
 H         -16.351030      -44.742645      -13.797570
 H         -17.882027      -44.836300      -12.671291
