20
 generated by VMD
 C         -27.513247      -84.628326      -26.453833
 N         -27.729290      -85.693123      -26.813387
 H         -31.148252      -84.983932      -25.909586
 H         -27.217224      -83.721725      -26.127573
 C         -31.979425      -85.649681      -25.794390
 C         -32.480083      -86.048050      -24.439718
 C         -32.177380      -86.580757      -26.895296
 C         -33.584564      -86.956573      -24.236191
 C         -33.524258      -87.365623      -26.709518
 C         -33.482994      -88.160431      -25.263090
 H         -32.747791      -85.098335      -23.987051
 H         -31.500086      -86.334038      -23.902536
 H         -32.272671      -85.960922      -27.838589
 H         -31.355370      -87.268944      -27.081326
 H         -34.578674      -86.530884      -24.377094
 H         -33.776749      -87.220329      -23.147839
 H         -33.748207      -87.973778      -27.645058
 H         -34.409199      -86.748245      -26.594501
 H         -34.258636      -88.901077      -25.253008
 H         -32.426834      -88.597069      -25.078302
