20
 generated by VMD
 C         -23.621283      -54.889359      -14.958608
 N         -23.053038      -54.403961      -15.770917
 H         -20.521616      -54.740101      -15.123645
 H         -23.835148      -55.275322      -13.831864
 C         -19.572197      -55.234562      -14.753904
 C         -18.830067      -54.714275      -13.601276
 C         -19.035425      -56.431206      -15.327140
 C         -18.988260      -55.748070      -12.537659
 C         -18.963219      -57.637249      -14.310601
 C         -18.331594      -57.189980      -12.958084
 H         -19.157166      -53.687180      -13.255317
 H         -17.761253      -54.502636      -13.942199
 H         -19.587738      -56.666607      -16.255102
 H         -17.934137      -56.196953      -15.759654
 H         -20.040184      -55.899609      -12.332119
 H         -18.403061      -55.328243      -11.673778
 H         -18.383287      -58.417042      -14.704076
 H         -19.973433      -58.005817      -14.098289
 H         -18.545357      -57.959343      -12.195469
 H         -17.224485      -57.033539      -13.148029
