20
 generated by VMD
 C         -78.646866     -209.633850      -77.343498
 N         -79.054787     -209.241104      -76.342545
 H         -78.254478     -210.112518      -73.524826
 H         -78.270256     -209.937027      -78.293404
 C         -78.389275     -210.925629      -72.865120
 C         -77.426659     -211.272522      -71.767090
 C         -79.542427     -211.903061      -72.958611
 C         -77.955200     -211.893082      -70.499832
 C         -80.154869     -212.336243      -71.681679
 C         -79.213913     -212.921570      -70.669914
 H         -76.887306     -210.348083      -71.485992
 H         -76.657547     -211.922409      -72.244644
 H         -80.244247     -211.506271      -73.639526
 H         -79.075188     -212.761414      -73.323524
 H         -78.427734     -211.111893      -69.875916
 H         -77.111015     -212.364380      -69.968468
 H         -81.054047     -212.788361      -71.893631
 H         -80.660904     -211.377884      -71.171082
 H         -79.610168     -213.249298      -69.712074
 H         -78.926285     -213.919708      -71.108093
