20
 generated by VMD
 C         -11.166245      -25.902302       -0.849070
 N         -10.942151      -24.828526       -0.585423
 H          -7.509327      -25.791420       -0.866774
 H          -8.921859      -25.375242       -1.867901
 C          -7.850022      -25.353449       -1.856973
 C          -7.315147      -26.309923       -3.008857
 C          -7.254055      -23.987535       -1.976159
 C          -7.785457      -25.645082       -4.396751
 C          -7.657290      -23.304544       -3.321132
 C          -7.227066      -24.193972       -4.530283
 H          -7.590687      -27.323656       -2.853181
 H          -6.270508      -26.323444       -2.960498
 H          -7.652145      -23.394779       -1.153051
 H          -6.141726      -23.913298       -1.903563
 H          -8.859598      -25.624683       -4.529788
 H          -7.441907      -26.197628       -5.262022
 H          -7.137666      -22.311943       -3.367079
 H          -8.759553      -23.173433       -3.399688
 H          -7.746736      -23.770819       -5.431353
 H          -6.094265      -24.240000       -4.628749
