20
 generated by VMD
 C         -50.717426     -129.584076      -45.824280
 N         -51.042126     -130.579330      -45.290936
 H         -48.697811     -131.180573      -44.024704
 H         -50.326164     -128.651306      -46.183155
 C         -48.139172     -131.117401      -43.026279
 C         -48.359028     -132.457581      -42.348015
 C         -47.910194     -129.890533      -42.233894
 C         -47.299194     -132.577972      -41.221210
 C         -46.959145     -130.132858      -41.160015
 C         -47.223335     -131.390320      -40.326698
 H         -48.255615     -133.257568      -43.178394
 H         -49.347363     -132.534836      -41.948174
 H         -47.559063     -129.168427      -42.944447
 H         -48.876263     -129.496216      -41.740807
 H         -46.312546     -132.858887      -41.630295
 H         -47.528595     -133.498459      -40.655895
 H         -46.855240     -129.161362      -40.553005
 H         -45.937271     -130.264114      -41.584106
 H         -46.362831     -131.461258      -39.560719
 H         -48.194912     -131.138855      -39.869640
