20
 generated by VMD
 C         -20.358597      -57.309837      -16.657696
 N         -19.705296      -56.347179      -16.589481
 H         -22.949411      -60.066284      -17.809706
 H         -21.091806      -58.154533      -16.639854
 C         -22.618431      -60.643295      -16.929270
 C         -23.550600      -60.456219      -15.799213
 C         -21.253031      -61.305840      -16.796164
 C         -22.620127      -60.458462      -14.516817
 C         -20.968569      -62.104778      -15.516562
 C         -21.969915      -61.823471      -14.356027
 H         -24.357748      -61.252312      -15.905794
 H         -24.041910      -59.508114      -15.947752
 H         -20.983276      -61.973465      -17.625607
 H         -20.524199      -60.506420      -16.736814
 H         -23.239620      -60.224964      -13.629645
 H         -21.916807      -59.671993      -14.481991
 H         -20.018738      -61.738621      -15.117720
 H         -20.847067      -63.227089      -15.641748
 H         -22.884888      -62.430050      -14.493712
 H         -21.532831      -62.126171      -13.403748
