20
 generated by VMD
 C         -63.107006     -172.538971      -55.162067
 N         -62.592258     -173.555771      -55.109447
 H         -61.623104     -171.496750      -58.271805
 H         -63.487404     -171.521942      -55.214378
 C         -62.498936     -170.908096      -58.416637
 C         -62.410706     -169.480774      -58.183849
 C         -63.646049     -171.417313      -59.141968
 C         -63.669872     -168.659821      -58.133965
 C         -64.938812     -170.452057      -59.238556
 C         -64.971199     -169.533447      -57.972485
 H         -61.774826     -169.073029      -58.918552
 H         -61.805141     -169.422501      -57.161800
 H         -63.491768     -171.717163      -60.228485
 H         -64.018745     -172.323914      -58.690327
 H         -63.744308     -168.132401      -59.016167
 H         -63.561703     -167.979416      -57.322830
 H         -65.807152     -171.042709      -59.405300
 H         -64.653145     -169.910477      -60.120178
 H         -65.778038     -168.692337      -58.025871
 H         -65.027748     -170.146225      -57.034416
