20
 generated by VMD
 C          -2.383599      -16.585896        2.627424
 N          -1.647704      -17.374666        2.341571
 H          -4.799112      -16.393843        0.456858
 H          -4.720886      -17.624430       -0.842481
 C          -5.379898      -17.046747       -0.189289
 C          -6.408269      -16.328325       -0.947504
 C          -6.067501      -18.006262        0.796495
 C          -7.133040      -17.321650       -1.816582
 C          -7.003910      -19.044546        0.078187
 C          -7.927753      -18.303812       -0.961508
 H          -5.982498      -15.554039       -1.587942
 H          -7.142118      -15.782405       -0.312303
 H          -5.283084      -18.558804        1.427317
 H          -6.599615      -17.433933        1.630282
 H          -6.393705      -17.869497       -2.408532
 H          -7.787690      -16.808395       -2.564706
 H          -7.573938      -19.689411        0.735319
 H          -6.344905      -19.776205       -0.491800
 H          -8.351563      -19.061199       -1.621935
 H          -8.706989      -17.768818       -0.429843
