20
 generated by VMD
 C         -79.728783     -207.024582      -73.642883
 N         -80.190178     -205.987793      -73.752411
 H         -78.081940     -205.218933      -70.688904
 H         -79.178299     -207.882416      -73.516792
 C         -77.101181     -205.337692      -70.249573
 C         -76.047379     -204.470596      -70.855896
 C         -76.803391     -206.613205      -69.657921
 C         -74.647942     -204.664154      -70.260345
 C         -75.437195     -206.827057      -69.135323
 C         -74.413467     -206.176193      -70.133560
 H         -76.313217     -203.459061      -71.058876
 H         -76.002213     -204.987091      -71.785851
 H         -77.520988     -207.088913      -69.008751
 H         -76.750008     -207.335052      -70.460571
 H         -74.631622     -204.135193      -69.291252
 H         -74.061584     -204.097382      -70.997162
 H         -75.380379     -207.846542      -68.945496
 H         -75.247192     -206.404755      -68.124802
 H         -73.399712     -206.316528      -69.800308
 H         -74.514008     -206.712158      -71.116585
