20
 generated by VMD
 C         -50.977077     -127.693398      -40.999119
 N         -51.485542     -128.463837      -41.699684
 H         -47.565048     -127.530907      -40.627155
 H         -50.240768     -126.994392      -40.606480
 C         -46.621052     -127.164474      -40.807632
 C         -45.397015     -127.623726      -40.109291
 C         -46.766125     -125.731468      -41.258873
 C         -44.142761     -127.006470      -40.742371
 C         -45.523781     -125.198761      -41.860577
 C         -44.210434     -125.475555      -41.024544
 H         -45.421227     -128.766983      -40.324932
 H         -45.437897     -127.368477      -39.036690
 H         -47.582344     -125.707695      -42.152615
 H         -47.309219     -124.972000      -40.586395
 H         -43.981281     -127.529999      -41.714249
 H         -43.191418     -127.194405      -40.179077
 H         -45.642933     -124.114075      -42.076679
 H         -45.202736     -125.642250      -42.879406
 H         -43.373974     -125.100357      -41.548000
 H         -44.293308     -124.930878      -40.082085
