20
 generated by VMD
 C         -50.226837     -131.992523      -46.794579
 N         -49.952652     -132.480804      -47.859413
 H         -47.902607     -132.081558      -43.779099
 H         -50.385616     -131.269745      -45.975578
 C         -48.687061     -132.631195      -43.230042
 C         -49.508797     -133.690948      -43.757969
 C         -48.774342     -132.316742      -41.745266
 C         -49.331306     -134.956696      -42.895870
 C         -48.583218     -133.566818      -40.900398
 C         -49.539482     -134.741013      -41.423370
 H         -49.166466     -134.012650      -44.674980
 H         -50.637135     -133.576889      -43.826057
 H         -48.133320     -131.506119      -41.519909
 H         -49.751823     -131.841919      -41.481487
 H         -48.327530     -135.386627      -42.943977
 H         -50.117691     -135.667160      -43.181515
 H         -48.645714     -133.483505      -39.758308
 H         -47.537899     -133.855789      -41.123829
 H         -49.251354     -135.589890      -40.738998
 H         -50.526062     -134.605148      -41.029778
