20
 generated by VMD
 C         -12.002356      -41.674747       -7.380695
 N         -11.552667      -40.788422       -6.887738
 H         -14.088721      -40.679344       -8.302821
 H         -15.352422      -40.224159       -9.451675
 C         -14.893906      -41.078205       -8.982154
 C         -16.045221      -41.763824       -8.202514
 C         -14.315594      -42.033024      -10.007605
 C         -17.103113      -42.222042       -9.258013
 C         -15.358429      -42.616966      -10.971577
 C         -16.541864      -43.257439      -10.219766
 H         -16.544979      -41.022552       -7.565140
 H         -15.671683      -42.590389       -7.665035
 H         -13.564695      -41.426762      -10.540021
 H         -13.805875      -42.811172       -9.485919
 H         -17.380093      -41.419529       -9.912418
 H         -18.024305      -42.546387       -8.773206
 H         -14.954368      -43.364384      -11.689152
 H         -15.743248      -41.782551      -11.624876
 H         -17.361534      -43.621376      -10.914455
 H         -16.160366      -44.166836       -9.750912
