20
 generated by VMD
 C         -70.002647     -184.189575      -65.977028
 N         -69.005173     -183.993271      -66.585655
 H         -69.735962     -183.882172      -63.228222
 H         -70.910965     -184.407959      -65.460510
 C         -68.858429     -183.804276      -62.589615
 C         -69.145012     -184.715118      -61.368149
 C         -68.004227     -182.634583      -62.472012
 C         -67.913757     -184.797714      -60.477459
 C         -66.896950     -182.609848      -61.430847
 C         -67.384819     -183.377106      -60.113983
 H         -69.412636     -185.724243      -61.762390
 H         -70.042778     -184.266830      -60.902828
 H         -67.570480     -182.412155      -63.414677
 H         -68.784630     -181.942505      -62.203156
 H         -67.264671     -185.383652      -61.186878
 H         -68.136276     -185.470825      -59.647095
 H         -66.565514     -181.643707      -61.097805
 H         -66.040909     -183.156754      -61.884430
 H         -66.486351     -183.483566      -59.443977
 H         -67.959679     -182.811111      -59.476330
