20
 generated by VMD
 C         -79.810684     -206.937698      -74.206879
 N         -80.420517     -206.126587      -74.727341
 H         -78.028732     -206.618408      -71.570320
 H         -79.339859     -207.792572      -73.791512
 C         -77.082863     -207.253632      -71.625221
 C         -75.775734     -206.500092      -71.626877
 C         -77.138062     -208.550140      -70.791550
 C         -75.438377     -206.186996      -70.111153
 C         -76.926071     -208.154144      -69.383286
 C         -75.574570     -207.551437      -69.254082
 H         -75.669296     -205.476807      -72.032913
 H         -75.058052     -207.194244      -72.124489
 H         -78.123650     -209.036804      -70.960205
 H         -76.360718     -209.179367      -71.132660
 H         -75.982750     -205.296677      -69.709473
 H         -74.421509     -205.751831      -70.081352
 H         -76.944832     -209.121887      -68.877823
 H         -77.660324     -207.508102      -68.936928
 H         -75.340134     -207.175720      -68.298729
 H         -74.716537     -208.268280      -69.449631
