20
 generated by VMD
 C         -67.160263     -189.607529      -66.499451
 N         -66.243774     -189.608185      -67.230530
 H         -70.184303     -190.803101      -65.480850
 H         -68.041267     -189.796371      -65.859352
 C         -70.890381     -190.124924      -64.986221
 C         -72.015800     -190.962204      -64.346512
 C         -70.390396     -188.851852      -64.207077
 C         -73.093849     -189.974976      -64.020477
 C         -71.612038     -187.988602      -63.766285
 C         -72.717964     -188.728455      -63.179298
 H         -71.543556     -191.503555      -63.397713
 H         -72.547287     -191.762054      -64.969261
 H         -69.964622     -189.120712      -63.254375
 H         -69.810455     -188.117401      -64.832039
 H         -73.823685     -190.503403      -63.457611
 H         -73.467155     -189.623337      -65.037491
 H         -72.030998     -187.436890      -64.618134
 H         -71.266594     -187.279236      -63.049442
 H         -72.563400     -188.988678      -62.048775
 H         -73.634331     -188.068924      -63.046986
