20
 generated by VMD
 C         -27.701895      -86.403786      -26.183558
 N         -28.368258      -86.794189      -27.065199
 H         -30.794996      -87.055084      -25.313879
 H         -27.180372      -85.874840      -25.288221
 C         -31.847790      -87.087051      -25.627005
 C         -32.891350      -87.518135      -24.528650
 C         -32.082039      -87.457680      -27.037470
 C         -34.345810      -87.524887      -25.049929
 C         -33.535938      -87.515244      -27.395515
 C         -34.409512      -88.161102      -26.438816
 H         -32.614826      -86.822853      -23.768328
 H         -32.752132      -88.484077      -24.191914
 H         -31.592415      -86.655472      -27.678799
 H         -31.601240      -88.418159      -27.163944
 H         -34.740829      -86.455643      -25.234888
 H         -35.221611      -87.953239      -24.388783
 H         -33.629890      -87.963432      -28.337902
 H         -33.986073      -86.524010      -27.596283
 H         -35.427986      -88.044075      -26.719803
 H         -34.178104      -89.110428      -26.161430
