20
 generated by VMD
 C         -23.304750      -53.339714      -14.226611
 N         -24.194607      -53.233883      -15.010386
 H         -20.329407      -55.319386      -15.289966
 H         -22.695583      -53.637661      -13.323333
 C         -19.610287      -55.469269      -14.558860
 C         -19.296371      -54.220791      -13.692396
 C         -18.466656      -56.395962      -14.841249
 C         -18.140528      -54.439449      -12.712879
 C         -17.742205      -56.850838      -13.615432
 C         -17.179440      -55.576817      -12.951310
 H         -20.136795      -53.936962      -13.004820
 H         -18.929739      -53.369225      -14.348339
 H         -18.885323      -57.199554      -15.421678
 H         -17.769550      -55.814728      -15.577033
 H         -18.679737      -54.589928      -11.788930
 H         -17.522524      -53.541302      -12.550518
 H         -16.939840      -57.531445      -13.816831
 H         -18.466930      -57.334766      -12.924730
 H         -16.516741      -55.729694      -12.098908
 H         -16.411945      -55.170914      -13.663021
