20
 generated by VMD
 C         -40.075668     -100.688271      -31.787722
 N         -40.929626     -100.326431      -31.057499
 H         -37.506283     -103.495087      -32.265541
 H         -39.479767     -101.045876      -32.715179
 C         -36.967361     -102.794518      -31.726191
 C         -35.856480     -102.339333      -32.725708
 C         -36.774780     -102.423805      -30.264359
 C         -35.485592     -100.791519      -32.618786
 C         -36.628857     -100.865257      -30.313129
 C         -35.355103     -100.356384      -31.070635
 H         -36.311890     -102.513214      -33.730824
 H         -35.052670     -103.034798      -32.678299
 H         -37.607887     -102.703461      -29.685356
 H         -35.810894     -102.951599      -29.960480
 H         -36.282486     -100.198105      -32.893749
 H         -34.644257     -100.518654      -33.237076
 H         -36.645615     -100.370003      -29.230356
 H         -37.506832     -100.444931      -30.792042
 H         -35.187305      -99.297058      -30.895212
 H         -34.433830     -100.793930      -30.736666
