20
 generated by VMD
 C         -49.556908     -133.053497      -46.790203
 N         -48.574268     -132.820755      -47.358047
 H         -48.088074     -134.562561      -43.584423
 H         -50.515633     -133.452835      -46.415096
 C         -49.110847     -134.804337      -43.872044
 C         -49.523514     -136.244736      -44.276016
 C         -50.216938     -133.996948      -43.310940
 C         -50.124199     -136.972107      -43.106800
 C         -50.776516     -134.763077      -42.044662
 C         -51.239380     -136.089523      -42.462078
 H         -48.705166     -136.816071      -44.834126
 H         -50.335629     -136.137848      -44.952774
 H         -49.810879     -133.005035      -42.834797
 H         -50.944504     -133.725220      -44.112778
 H         -49.306862     -136.987610      -42.370708
 H         -50.397404     -137.959625      -43.461189
 H         -51.598320     -134.211945      -41.595406
 H         -49.981144     -134.915894      -41.321209
 H         -51.635834     -136.806610      -41.684357
 H         -52.159679     -136.107346      -43.036064
