20
 generated by VMD
 C         -30.138266      -89.510529      -25.709986
 N         -29.185102      -90.138130      -26.035864
 H         -32.044483      -91.434097      -26.802954
 H         -30.999954      -88.795227      -25.406063
 C         -32.830154      -90.789635      -27.191910
 C         -34.292259      -91.153824      -27.278471
 C         -32.532108      -89.585281      -28.006962
 C         -35.227390      -90.033318      -26.873743
 C         -33.531910      -88.436142      -27.887770
 C         -35.008022      -88.854836      -27.715626
 H         -34.406300      -92.034103      -26.652203
 H         -34.336823      -91.399185      -28.381971
 H         -31.537518      -89.181229      -27.713354
 H         -32.479042      -89.658119      -29.076195
 H         -34.995335      -89.961853      -25.774282
 H         -36.238728      -90.430649      -26.914234
 H         -33.383995      -87.794472      -28.777052
 H         -33.285732      -87.822617      -26.947550
 H         -35.625923      -87.985245      -27.317904
 H         -35.336277      -89.079620      -28.838415
