20
 generated by VMD
 C         -41.335369     -102.344017      -35.437927
 N         -41.544144     -103.384407      -35.918777
 H         -39.296364     -105.098061      -33.965885
 H         -41.209663     -101.423187      -34.943668
 C         -38.675579     -105.127480      -32.921879
 C         -37.298023     -104.399948      -32.825909
 C         -38.892025     -106.232559      -31.866653
 C         -36.460701     -104.640282      -31.545835
 C         -37.936428     -106.395638      -30.807842
 C         -36.547157     -106.057327      -31.152344
 H         -37.441555     -103.311630      -32.992741
 H         -36.802334     -104.786682      -33.772568
 H         -39.971882     -106.141815      -31.493570
 H         -38.869350     -107.153992      -32.445553
 H         -36.770058     -104.067215      -30.642666
 H         -35.412678     -104.295952      -31.740036
 H         -38.092381     -107.374214      -30.290178
 H         -38.135109     -105.638771      -29.961252
 H         -36.078342     -106.268982      -30.260201
 H         -36.060928     -106.744049      -31.902620
