20
 generated by VMD
 C         -17.329687      -48.095955       -6.985577
 N         -16.805340      -47.122299       -6.808279
 H         -16.567362      -48.656036      -10.453494
 H         -15.592168      -48.508324      -11.893133
 C         -16.386337      -47.965557      -11.329515
 C         -15.771446      -46.653145      -10.900690
 C         -17.604486      -47.866573      -12.244484
 C         -15.610151      -45.655388      -12.101638
 C         -17.269043      -47.057266      -13.523452
 C         -16.856783      -45.672668      -13.002427
 H         -14.787982      -46.799633      -10.531748
 H         -16.368774      -46.177124      -10.119289
 H         -17.848394      -48.890072      -12.592329
 H         -18.412590      -47.402916      -11.673839
 H         -14.805515      -46.101040      -12.670409
 H         -15.323558      -44.661961      -11.736304
 H         -18.160152      -46.802448      -14.177421
 H         -16.618317      -47.643742      -14.098866
 H         -16.674623      -45.022007      -13.860566
 H         -17.728804      -45.277397      -12.413481
