20
 generated by VMD
 C          -5.899079      -21.107552        2.064375
 N          -6.165236      -22.053385        1.548294
 H          -5.057111      -18.781601       -0.994598
 H          -5.955844      -20.037132       -0.122905
 C          -5.808460      -19.541935       -1.048493
 C          -5.537559      -20.587708       -2.102160
 C          -7.126266      -18.820286       -1.455273
 C          -6.613452      -21.607187       -2.228423
 C          -8.295663      -19.846834       -1.443138
 C          -7.999210      -20.966600       -2.468607
 H          -4.610832      -21.008291       -1.904746
 H          -5.420562      -20.126982       -3.111623
 H          -7.382033      -17.895985       -0.892062
 H          -6.979303      -18.290888       -2.482649
 H          -6.702041      -22.105474       -1.287736
 H          -6.412837      -22.401171       -2.927373
 H          -9.273244      -19.401031       -1.644867
 H          -8.363281      -20.249025       -0.432269
 H          -8.797094      -21.702377       -2.454295
 H          -8.071244      -20.618446       -3.491534
