20
 generated by VMD
 C         -61.482918     -172.332916      -54.980820
 N         -60.579945     -173.014206      -55.149998
 H         -62.216431     -170.719925      -58.404755
 H         -62.419449     -171.850052      -54.688263
 C         -62.835423     -170.045456      -57.803066
 C         -62.634548     -168.669785      -57.616283
 C         -64.239380     -170.418304      -57.513943
 C         -63.394840     -167.844040      -58.649158
 C         -65.146721     -169.684479      -58.572140
 C         -64.963409     -168.101562      -58.653427
 H         -61.472946     -168.392944      -57.761860
 H         -62.912830     -168.411591      -56.674438
 H         -64.277672     -171.569931      -57.558548
 H         -64.370163     -170.053299      -56.466038
 H         -63.096203     -167.986267      -59.635818
 H         -63.154278     -166.792908      -58.436218
 H         -66.176186     -169.983932      -58.360699
 H         -64.979965     -170.128647      -59.561981
 H         -65.536308     -167.792404      -59.633171
 H         -65.379211     -167.597000      -57.773438
