20
 generated by VMD
 C         -37.998013     -107.973671      -37.044693
 N         -38.565239     -108.131035      -38.061417
 H         -40.987301     -108.756332      -35.324097
 H         -37.430130     -107.737961      -36.113457
 C         -41.206848     -109.617538      -34.667370
 C         -40.229637     -110.615417      -34.975105
 C         -42.414330     -109.713379      -33.919243
 C         -40.054569     -111.444344      -33.657219
 C         -42.220081     -110.603531      -32.735847
 C         -41.398014     -111.924728      -33.069561
 H         -39.260582     -110.201004      -35.298874
 H         -40.491356     -111.325951      -35.756382
 H         -42.691940     -108.739525      -33.590279
 H         -43.220024     -110.253593      -34.460545
 H         -39.413464     -110.699112      -33.005276
 H         -39.418846     -112.252609      -33.895905
 H         -43.177719     -110.757912      -32.352165
 H         -41.616772     -110.165352      -31.977247
 H         -41.257984     -112.486633      -32.159927
 H         -41.924202     -112.664436      -33.842468
