20
 generated by VMD
 C         -67.730415     -191.697678      -66.916092
 N         -66.719589     -192.233032      -66.944069
 H         -70.744423     -189.250000      -66.390007
 H         -68.705139     -191.362106      -67.033981
 C         -71.248810     -189.745316      -65.596992
 C         -71.783524     -191.142761      -65.812302
 C         -71.190262     -189.250946      -64.131134
 C         -73.149513     -191.289139      -65.201408
 C         -72.609474     -189.468307      -63.469849
 C         -73.339218     -190.720154      -63.738140
 H         -71.079597     -191.846008      -65.285873
 H         -71.886337     -191.252502      -66.929291
 H         -70.443169     -189.843262      -63.618237
 H         -70.980629     -188.179565      -64.038872
 H         -73.477943     -192.334778      -65.221771
 H         -73.944420     -190.829224      -65.797371
 H         -73.337662     -188.755661      -63.785961
 H         -72.618530     -189.296875      -62.371181
 H         -73.142960     -191.575043      -63.163074
 H         -74.315598     -190.458939      -63.540104
