20
 generated by VMD
 C         -15.347613      -47.606964       -6.136119
 N         -15.556282      -46.642471       -5.604692
 H         -16.399336      -47.141026       -9.942762
 H         -15.167295      -46.804138      -11.085729
 C         -16.260490      -46.596958      -10.913754
 C         -16.428591      -45.083397      -10.768099
 C         -17.106199      -47.277958      -12.052099
 C         -16.213900      -44.448315      -12.182254
 C         -16.886271      -46.678165      -13.429103
 C         -17.082443      -45.202286      -13.230668
 H         -15.687589      -44.748871      -10.069530
 H         -17.443056      -44.788349      -10.457139
 H         -16.850105      -48.344959      -12.117821
 H         -18.162653      -47.155483      -11.788248
 H         -15.199843      -44.656986      -12.533863
 H         -16.386015      -43.358986      -12.074602
 H         -17.706118      -47.068146      -14.112849
 H         -15.926670      -46.970329      -13.918150
 H         -16.962551      -44.689262      -14.163631
 H         -18.152010      -45.025757      -13.000048
