20
 generated by VMD
 C         -49.851776     -142.145401      -45.169357
 N         -49.074802     -142.987289      -45.327038
 H         -51.897533     -139.140137      -45.809681
 H         -50.472179     -141.257339      -44.956276
 C         -52.331928     -139.925461      -46.397198
 C         -52.413483     -140.158066      -47.901875
 C         -53.639935     -140.420410      -45.580917
 C         -52.900555     -141.574829      -48.284214
 C         -54.174370     -141.729095      -46.123646
 C         -54.242188     -141.890518      -47.664444
 H         -51.533768     -139.789154      -48.489948
 H         -53.185436     -139.572830      -48.391788
 H         -53.278152     -140.687302      -44.596313
 H         -54.188259     -139.566177      -45.734100
 H         -52.119686     -142.313843      -47.953705
 H         -52.838428     -141.812195      -49.369953
 H         -55.270954     -141.951431      -45.826046
 H         -53.541519     -142.526596      -45.625168
 H         -54.617733     -142.877228      -47.976311
 H         -55.069965     -141.255219      -48.099125
