20
 generated by VMD
 C         -50.378036     -130.854279      -45.633953
 N         -50.657917     -129.897247      -46.171124
 H         -47.434933     -132.334335      -44.366158
 H         -50.378437     -131.905792      -45.328007
 C         -48.083385     -132.307434      -43.513699
 C         -48.535889     -133.582657      -42.872047
 C         -48.356586     -131.003510      -42.748867
 C         -48.044952     -133.698212      -41.458004
 C         -47.913368     -131.186066      -41.255825
 C         -48.385883     -132.476913      -40.612000
 H         -48.224297     -134.461502      -43.484703
 H         -49.580601     -133.730423      -42.768997
 H         -47.875748     -130.228378      -43.351723
 H         -49.336834     -130.704819      -42.894989
 H         -47.041313     -134.020935      -41.296993
 H         -48.637356     -134.414276      -40.934914
 H         -48.275269     -130.307266      -40.648773
 H         -46.753162     -131.133163      -41.255726
 H         -47.862846     -132.436310      -39.671562
 H         -49.431931     -132.342331      -40.389370
