20
 generated by VMD
 C         -50.034576     -131.606796      -46.695293
 N         -50.167206     -131.905594      -47.775787
 H         -48.698250     -131.657837      -44.004364
 H         -49.689419     -131.705856      -45.716625
 C         -48.904873     -132.232452      -43.168079
 C         -49.618969     -133.531326      -43.391228
 C         -48.782539     -131.858704      -41.684044
 C         -49.036964     -134.660629      -42.562672
 C         -48.053314     -132.967499      -40.948997
 C         -48.770294     -134.302200      -41.097858
 H         -49.678547     -133.821548      -44.456749
 H         -50.599888     -133.205658      -43.099194
 H         -48.103947     -130.948257      -41.654484
 H         -49.783401     -131.672913      -41.334309
 H         -48.145096     -134.840042      -43.155045
 H         -49.758648     -135.471680      -42.722187
 H         -47.984367     -132.721664      -39.950729
 H         -47.159702     -133.271423      -41.451057
 H         -48.417973     -135.190674      -40.462357
 H         -49.723873     -134.180664      -40.563782
