20
 generated by VMD
 C         -80.673752     -205.710709      -72.031815
 N         -79.942093     -206.595047      -71.936111
 H         -76.869995     -204.535706      -72.168106
 H         -81.536873     -205.036865      -71.844109
 C         -76.120300     -204.578156      -71.374580
 C         -74.958870     -203.524200      -71.070267
 C         -76.124825     -205.937790      -70.631058
 C         -74.243187     -203.655991      -69.778252
 C         -75.643570     -205.794800      -69.264008
 C         -74.233513     -205.212738      -69.307243
 H         -75.406013     -202.523544      -71.233826
 H         -74.271263     -203.702576      -71.900650
 H         -77.177223     -206.264008      -70.645050
 H         -75.606041     -206.558853      -71.271904
 H         -74.863907     -203.018341      -69.002281
 H         -73.225647     -203.224548      -69.779907
 H         -75.704201     -206.733475      -68.664658
 H         -76.291946     -205.115356      -68.726295
 H         -73.850357     -205.276703      -68.302773
 H         -73.512665     -205.689423      -70.018326
