20
 generated by VMD
 C         -22.789095      -53.070000      -12.551081
 N         -22.781263      -52.542122      -13.549450
 H         -20.224476      -54.607544      -14.531426
 H         -22.860109      -53.285107      -11.546362
 C         -19.429558      -54.197624      -13.993366
 C         -19.065760      -52.833851      -13.949783
 C         -18.539076      -55.298679      -13.529355
 C         -17.620331      -52.583221      -13.514769
 C         -17.138233      -54.934792      -12.961675
 C         -16.576195      -53.678505      -13.566825
 H         -19.687691      -52.284485      -13.218637
 H         -19.260984      -52.470291      -15.033740
 H         -19.095755      -55.960983      -12.798388
 H         -18.317934      -55.860558      -14.420521
 H         -17.643394      -52.283493      -12.463550
 H         -17.273228      -51.685596      -14.061046
 H         -16.375477      -55.772774      -13.013042
 H         -17.242342      -54.686794      -11.935406
 H         -15.676370      -53.437302      -12.925141
 H         -16.268749      -53.769344      -14.615920
