20
 generated by VMD
 C         -53.795113     -147.858215      -45.446926
 N         -54.560631     -147.973480      -44.568089
 H         -54.985455     -147.884033      -48.851555
 H         -53.188740     -147.901062      -46.361984
 C         -54.433372     -146.942230      -49.012573
 C         -53.287212     -146.695114      -49.813770
 C         -54.934135     -145.724396      -48.332127
 C         -53.402515     -145.408554      -50.630432
 C         -55.120144     -144.476059      -49.134903
 C         -53.879513     -144.195877      -49.862995
 H         -52.876335     -147.550049      -50.420902
 H         -52.485176     -146.470459      -49.169701
 H         -55.956718     -145.970566      -47.920269
 H         -54.350777     -145.397354      -47.491947
 H         -53.950642     -145.510391      -51.588127
 H         -52.277290     -145.136230      -50.848625
 H         -55.276627     -143.731232      -48.465145
 H         -55.950058     -144.604095      -49.847984
 H         -54.020840     -143.290390      -50.428116
 H         -53.153793     -143.746689      -49.209503
