20
 generated by VMD
 C         -59.459602     -158.217392      -57.011482
 N         -58.524624     -158.561722      -57.600594
 H         -60.482807     -158.213776      -53.434204
 H         -60.321121     -157.846176      -56.481354
 C         -59.994148     -159.103821      -52.989365
 C         -58.575596     -159.060013      -52.449802
 C         -60.752216     -160.383209      -53.240101
 C         -58.230282     -160.131943      -51.358009
 C         -60.331799     -161.396088      -52.166290
 C         -58.807152     -161.461197      -51.790848
 H         -58.518837     -158.063889      -51.978935
 H         -58.000088     -159.249023      -53.395161
 H         -61.949528     -160.253082      -53.247723
 H         -60.499928     -160.742920      -54.247189
 H         -58.727474     -160.003510      -50.457569
 H         -57.130260     -160.006699      -51.021965
 H         -60.866760     -162.289276      -52.497257
 H         -60.764965     -161.119522      -51.136845
 H         -58.648739     -162.065536      -50.926315
 H         -58.184727     -162.055222      -52.480350
