20
 generated by VMD
 C         -31.264540      -75.739532      -21.533283
 N         -32.284245      -75.248116      -21.311661
 H         -27.703505      -75.165871      -19.878691
 H         -30.558640      -76.187859      -22.347853
 C         -26.829065      -75.181427      -20.437693
 C         -26.464193      -76.363617      -21.351269
 C         -25.874212      -74.007462      -20.429611
 C         -25.933779      -75.863998      -22.762045
 C         -25.329090      -73.608276      -21.739902
 C         -24.852924      -74.766319      -22.665358
 H         -27.285765      -77.254875      -21.453512
 H         -25.721718      -76.929855      -20.760649
 H         -26.358057      -73.156883      -20.029909
 H         -24.997772      -74.385857      -19.792894
 H         -26.709978      -75.347702      -23.356998
 H         -25.575726      -76.695778      -23.417084
 H         -24.530876      -72.897270      -21.733667
 H         -26.094181      -73.026215      -22.202709
 H         -24.698215      -74.411530      -23.720146
 H         -23.981197      -75.131432      -22.120426
