20
 generated by VMD
 C         -70.288879     -182.914963      -64.471687
 N         -70.305397     -183.553970      -65.409348
 H         -68.480698     -180.508759      -62.540676
 H         -70.309067     -182.273315      -63.599037
 C         -67.661110     -180.807877      -61.819271
 C         -67.779091     -182.239456      -61.299377
 C         -66.928314     -179.733109      -60.982861
 C         -66.548691     -182.659195      -60.620449
 C         -65.632713     -180.257462      -60.511456
 C         -65.961899     -181.501328      -59.645313
 H         -67.960571     -182.838867      -62.196262
 H         -68.574211     -182.357178      -60.519756
 H         -66.727829     -178.858200      -61.745640
 H         -67.585503     -179.362152      -60.191334
 H         -65.621346     -182.878891      -61.287064
 H         -66.670448     -183.587906      -60.093357
 H         -65.298691     -179.410706      -59.923813
 H         -64.887444     -180.520752      -61.235905
 H         -65.005058     -181.860046      -59.160267
 H         -66.628120     -181.332886      -58.822063
