20
 generated by VMD
 C         -11.406011      -34.020245       -8.453614
 N         -10.687434      -34.759480       -8.952830
 H         -11.861825      -37.647999       -7.898068
 H         -12.601899      -37.174858       -6.354373
 C         -12.670835      -37.831787       -7.230995
 C         -12.462844      -39.237381       -6.679656
 C         -13.972150      -37.568577       -8.050714
 C         -13.711715      -39.638260       -5.898136
 C         -15.206722      -38.241554       -7.384239
 C         -14.992369      -39.625038       -6.839621
 H         -11.657088      -39.280457       -5.975986
 H         -12.348831      -39.879261       -7.549668
 H         -14.029119      -36.497345       -8.118288
 H         -13.776641      -38.065174       -9.035888
 H         -13.905563      -38.874809       -5.172199
 H         -13.532371      -40.667130       -5.443484
 H         -16.025614      -38.206520       -8.075108
 H         -15.539639      -37.582066       -6.484209
 H         -15.880139      -39.910488       -6.268518
 H         -14.908733      -40.361042       -7.700902
