20
 generated by VMD
 C         -49.970963     -143.596130      -44.470531
 N         -49.278126     -143.577133      -45.351700
 H         -52.047432     -141.979050      -45.629364
 H         -50.627842     -143.725037      -43.624462
 C         -52.732117     -141.695358      -46.393955
 C         -52.163418     -141.538940      -47.787067
 C         -54.163204     -141.221680      -46.245308
 C         -53.135174     -142.300018      -48.745682
 C         -55.118084     -141.834732      -47.246349
 C         -54.585033     -141.732010      -48.672974
 H         -51.199848     -142.067673      -47.715130
 H         -52.125504     -140.527618      -48.041695
 H         -54.507832     -141.514465      -45.240410
 H         -54.093491     -140.200729      -46.530350
 H         -53.341053     -143.473846      -48.613892
 H         -52.576477     -142.148972      -49.707714
 H         -56.218563     -141.479050      -47.292561
 H         -55.136471     -142.876144      -46.876900
 H         -55.336071     -142.306839      -49.340786
 H         -54.716949     -140.623062      -49.073971
