20
 generated by VMD
 C         -48.133469     -140.346359      -45.695457
 N         -47.047745     -140.079803      -45.599865
 H         -51.145828     -138.552887      -45.679157
 H         -49.129318     -140.786865      -45.824989
 C         -51.952385     -139.295914      -45.759197
 C         -52.275513     -139.398529      -47.230251
 C         -53.170368     -139.334351      -44.832664
 C         -53.265076     -140.497574      -47.616207
 C         -54.108692     -140.490768      -45.054573
 C         -54.487324     -140.564301      -46.617420
 H         -51.316860     -139.599808      -47.879345
 H         -52.714710     -138.405594      -47.339085
 H         -52.771461     -139.437424      -43.811741
 H         -53.694752     -138.358231      -44.764328
 H         -52.696289     -141.391815      -47.542538
 H         -53.586918     -140.447845      -48.603107
 H         -55.066818     -140.232925      -44.559334
 H         -53.718067     -141.481781      -44.799362
 H         -55.187153     -141.348282      -46.843281
 H         -55.052067     -139.677094      -47.012352
