20
 generated by VMD
 C         -49.982071     -127.625702      -39.146042
 N         -49.245941     -126.728622      -39.091766
 H         -47.169472     -126.169594      -41.230366
 H         -50.457989     -128.599136      -39.326004
 C         -46.204136     -125.520386      -41.145546
 C         -45.017040     -125.983841      -40.498192
 C         -46.613094     -124.066856      -41.174046
 C         -43.848953     -125.135620      -40.755787
 C         -45.334465     -123.242126      -41.471313
 C         -44.102661     -123.598892      -40.495193
 H         -44.835140     -127.020348      -40.949142
 H         -45.316139     -126.136101      -39.395500
 H         -47.158947     -123.921585      -42.040405
 H         -47.101276     -123.918076      -40.168728
 H         -43.495617     -125.219307      -41.825287
 H         -42.947052     -125.418839      -40.150616
 H         -45.683079     -122.219879      -41.379978
 H         -44.987736     -123.419853      -42.507111
 H         -43.210899     -123.128319      -40.894352
 H         -44.221359     -123.249672      -39.465267
