20
 generated by VMD
 C         -11.181870      -40.737064       -7.395315
 N         -11.622963      -40.399570       -6.432921
 H         -13.691315      -40.813782       -8.537128
 H         -15.088068      -39.915215       -9.070952
 C         -14.682869      -40.962372       -9.042245
 C         -15.627756      -41.674477       -8.117068
 C         -14.470454      -41.780262      -10.324964
 C         -16.930599      -42.078861       -8.788752
 C         -15.700591      -42.404545      -11.004998
 C         -16.639643      -42.986824       -9.994145
 H         -15.878926      -41.017365       -7.272568
 H         -15.206999      -42.610161       -7.651320
 H         -14.088726      -41.064114      -11.064926
 H         -13.677951      -42.519455      -10.012293
 H         -17.409878      -41.115868       -9.128219
 H         -17.526806      -42.633255       -8.066554
 H         -15.350159      -43.163063      -11.742235
 H         -16.226482      -41.620060      -11.605645
 H         -17.575203      -43.169357      -10.483355
 H         -16.262875      -43.960907       -9.673261
