20
 generated by VMD
 C         -20.324045      -57.277359      -16.833633
 N         -19.246359      -56.970345      -17.060240
 H         -22.449804      -59.685524      -17.591599
 H         -21.325514      -57.597610      -16.411266
 C         -22.433401      -60.327938      -16.624943
 C         -23.683401      -61.063431      -16.190067
 C         -21.079353      -60.933750      -16.318512
 C         -23.522610      -61.505123      -14.755590
 C         -21.360493      -62.313175      -15.694196
 C         -22.079679      -61.988598      -14.379938
 H         -23.846910      -61.942806      -16.856340
 H         -24.547636      -60.482235      -16.402651
 H         -20.593449      -61.056927      -17.318632
 H         -20.465925      -60.289482      -15.664828
 H         -24.191256      -62.368534      -14.525393
 H         -23.746359      -60.601765      -14.195851
 H         -20.619753      -63.113976      -15.516945
 H         -21.992195      -62.880287      -16.455568
 H         -22.298584      -63.007282      -13.971417
 H         -21.517277      -61.277454      -13.747339
