20
 generated by VMD
 C         -20.303427      -57.296719      -16.717010
 N         -19.473276      -56.522633      -16.769623
 H         -22.682320      -59.824772      -17.932865
 H         -21.348948      -57.873638      -16.732412
 C         -22.521936      -60.467697      -16.970360
 C         -23.576391      -60.739029      -15.913534
 C         -21.224577      -61.180454      -16.773844
 C         -23.076841      -60.840576      -14.476155
 C         -21.064713      -62.142864      -15.512997
 C         -22.041632      -61.972691      -14.326045
 H         -24.176113      -61.643513      -16.150028
 H         -24.344172      -59.927559      -15.970703
 H         -21.025017      -61.818272      -17.627388
 H         -20.376177      -60.487991      -16.698017
 H         -23.909458      -61.096245      -13.812843
 H         -22.776451      -59.888130      -14.139445
 H         -20.151800      -61.928001      -15.009257
 H         -21.024879      -63.185253      -15.895350
 H         -22.658802      -62.879108      -14.192893
 H         -21.506111      -61.982170      -13.328926
