20
 generated by VMD
 C         -10.905875      -39.557678       -7.019089
 N         -11.071115      -40.027740       -6.034054
 H         -13.391356      -40.909401       -9.091413
 H         -14.859011      -39.911911       -9.310678
 C         -14.459145      -40.932606       -9.230183
 C         -15.109422      -41.687393       -8.085993
 C         -14.707993      -41.440323      -10.673594
 C         -16.597975      -41.915226       -8.366307
 C         -16.157787      -41.918171      -10.895077
 C         -16.776709      -42.655247       -9.682294
 H         -14.967068      -41.197971       -7.162891
 H         -14.661355      -42.671875       -7.984828
 H         -14.367863      -40.710697      -11.381659
 H         -14.076594      -42.308468      -10.918459
 H         -17.127129      -40.961311       -8.440903
 H         -17.061758      -42.423393       -7.562251
 H         -16.238495      -42.562027      -11.835438
 H         -16.730759      -41.009735      -11.064185
 H         -17.842859      -42.868877       -9.834850
 H         -16.303648      -43.653889       -9.588820
