20
 generated by VMD
 C         -63.096771     -173.415390      -55.658531
 N         -63.241879     -174.102051      -54.725140
 H         -61.685375     -171.668823      -58.812771
 H         -62.828960     -172.755661      -56.484905
 C         -62.554581     -171.010910      -58.704582
 C         -62.595165     -169.800583      -57.757259
 C         -63.801506     -171.781815      -59.111298
 C         -63.693836     -168.801193      -58.310379
 C         -64.900139     -170.819717      -59.525341
 C         -64.951469     -169.568054      -58.660072
 H         -61.685108     -169.324814      -57.596054
 H         -62.982895     -170.068436      -56.672134
 H         -63.722801     -172.468826      -59.945618
 H         -64.167747     -172.505127      -58.408592
 H         -63.300941     -168.356812      -59.296806
 H         -63.884224     -167.896210      -57.614124
 H         -65.809906     -171.375656      -59.470005
 H         -64.865715     -170.542709      -60.526875
 H         -65.812172     -168.913986      -59.053608
 H         -65.256042     -169.880539      -57.682037
