20
 generated by VMD
 C         -10.113053      -24.600676       -0.436852
 N         -11.166161      -24.943302       -0.614226
 H          -6.273237      -25.275518       -0.966734
 H          -8.001979      -25.078066       -1.125031
 C          -7.041543      -24.964933       -1.703121
 C          -6.836360      -25.773901       -3.005750
 C          -6.847713      -23.446920       -2.082017
 C          -7.966205      -25.384905       -3.996457
 C          -7.959119      -22.998644       -3.073454
 C          -7.833700      -23.903414       -4.309961
 H          -6.986924      -26.839418       -2.708752
 H          -5.883419      -25.525517       -3.465383
 H          -7.035805      -22.874168       -1.131684
 H          -5.831908      -23.258259       -2.495348
 H          -8.937696      -25.587780       -3.506593
 H          -7.808093      -25.870575       -4.966171
 H          -7.828953      -21.937416       -3.310438
 H          -8.993697      -23.094038       -2.669797
 H          -8.705500      -23.592264       -4.913474
 H          -6.931528      -23.673773       -4.901012
