20
 generated by VMD
 C         -65.299431     -177.077927      -56.210251
 N         -65.909782     -177.292953      -55.227139
 H         -64.614914     -174.966354      -59.358604
 H         -64.801849     -176.806976      -57.159252
 C         -64.284454     -173.886536      -59.341869
 C         -65.256714     -172.862274      -58.803326
 C         -63.572231     -173.397324      -60.651451
 C         -64.710320     -171.575195      -58.760693
 C         -63.213268     -171.869995      -60.705711
 C         -64.160942     -171.012329      -60.010139
 H         -65.513245     -173.298874      -57.792683
 H         -66.134598     -172.849930      -59.492649
 H         -62.812771     -174.030716      -61.040310
 H         -64.222733     -173.539993      -61.462154
 H         -63.830559     -171.498032      -58.082825
 H         -65.463020     -170.935425      -58.278904
 H         -63.087593     -171.432053      -61.756733
 H         -62.264702     -171.844894      -60.137253
 H         -63.728458     -170.070251      -59.762798
 H         -65.003349     -170.854614      -60.652607
