20
 generated by VMD
 C         -22.683275      -55.570770      -16.692940
 N         -23.089447      -54.442230      -16.753918
 H         -19.324511      -55.457855      -14.846825
 H         -22.272469      -56.682808      -16.401371
 C         -19.644253      -56.532951      -14.623820
 C         -20.811546      -56.849800      -13.662425
 C         -18.744572      -57.620216      -15.313436
 C         -21.021830      -58.382431      -13.412291
 C         -19.048109      -59.139965      -14.801505
 C         -19.653208      -59.202816      -13.362868
 H         -21.703510      -56.298859      -13.867413
 H         -20.441303      -56.509338      -12.717407
 H         -18.813868      -57.512478      -16.350668
 H         -17.649372      -57.405396      -15.154279
 H         -21.637934      -58.919487      -14.105037
 H         -21.568008      -58.464012      -12.448704
 H         -18.106596      -59.640717      -14.779846
 H         -19.738853      -59.566097      -15.565788
 H         -19.826681      -60.245270      -13.030720
 H         -18.971243      -58.740124      -12.573177
