20
 generated by VMD
 C         -12.776926      -28.523092       -5.853295
 N         -13.068860      -28.665638       -6.920470
 H         -12.165408      -31.085476       -4.914528
 H         -10.980863      -29.805792       -5.013681
 C         -11.065389      -30.883673       -4.717820
 C         -10.140500      -31.780632       -5.561080
 C         -10.790679      -31.125820       -3.278614
 C          -8.618326      -31.442829       -5.232227
 C          -9.418413      -30.634285       -2.922906
 C          -8.445740      -31.538006       -3.651383
 H         -10.237990      -31.640333       -6.628719
 H         -10.276477      -32.825947       -5.369439
 H         -11.548976      -30.588667       -2.712329
 H         -10.934547      -32.154999       -2.972651
 H          -8.358459      -30.457468       -5.549766
 H          -7.983200      -32.079170       -5.815652
 H          -9.314965      -30.705406       -1.871444
 H          -9.254580      -29.553314       -3.250532
 H          -7.421868      -31.207697       -3.335938
 H          -8.437499      -32.585602       -3.245345
