20
 generated by VMD
 C         -47.812763     -124.781563      -38.294601
 N         -47.146805     -125.619232      -38.741116
 H         -45.152096     -123.058784      -37.729134
 H         -48.343052     -123.934715      -37.779243
 C         -45.051563     -122.843079      -38.775093
 C         -43.904728     -123.519547      -39.439297
 C         -45.691311     -121.802193      -39.497581
 C         -44.263218     -124.054565      -40.844532
 C         -46.083893     -122.238281      -41.056725
 C         -44.925861     -122.938362      -41.720284
 H         -43.644917     -124.277916      -38.748280
 H         -42.991486     -122.834991      -39.582512
 H         -46.708027     -121.591675      -38.959324
 H         -45.159058     -120.869347      -39.524776
 H         -44.856499     -124.938301      -40.723587
 H         -43.308376     -124.154449      -41.285290
 H         -46.266571     -121.331619      -41.603725
 H         -46.891937     -122.880959      -40.899021
 H         -45.387562     -123.479309      -42.539181
 H         -44.193588     -122.243256      -42.171036
