20
 generated by VMD
 C         -18.283102      -50.319157       -9.015339
 N         -19.361893      -50.098854       -9.165654
 H         -16.312641      -47.050701      -10.070341
 H         -17.379902      -48.453457      -10.303083
 C         -16.715801      -47.715889      -10.858049
 C         -15.552121      -48.368805      -11.611877
 C         -17.597750      -46.890953      -11.829460
 C         -16.097647      -49.315407      -12.678574
 C         -17.994102      -47.719719      -13.051840
 C         -16.926905      -48.583923      -13.731362
 H         -15.003968      -48.971050      -10.915673
 H         -14.781513      -47.645432      -12.020554
 H         -18.505276      -46.469791      -11.406696
 H         -17.019026      -46.073967      -12.193995
 H         -16.601967      -50.164806      -12.193450
 H         -15.246799      -49.731781      -13.238411
 H         -18.463083      -47.119709      -13.753221
 H         -18.791813      -48.449165      -12.752639
 H         -17.353870      -49.396233      -14.403375
 H         -16.330942      -47.921696      -14.418673
