20
 generated by VMD
 C         -41.520107     -119.868256      -34.113613
 N         -41.736538     -120.666656      -34.951412
 H         -43.337448     -119.011833      -37.021965
 H         -41.181545     -118.998535      -33.510616
 C         -43.789242     -118.548325      -37.843300
 C         -43.065201     -118.389526      -39.161572
 C         -45.229431     -117.969284      -37.878345
 C         -43.915115     -118.781174      -40.416885
 C         -46.016994     -118.196152      -39.246464
 C         -45.208729     -117.901985      -40.452812
 H         -42.176029     -119.080856      -39.131622
 H         -42.683537     -117.250221      -39.228577
 H         -45.687294     -118.254951      -36.997795
 H         -45.179741     -116.848366      -37.968578
 H         -44.147602     -119.920410      -40.471004
 H         -43.277733     -118.516357      -41.244350
 H         -46.923401     -117.519691      -39.268333
 H         -46.308559     -119.162712      -39.353481
 H         -45.737652     -118.210739      -41.327599
 H         -44.872597     -116.845406      -40.477108
