20
 generated by VMD
 C         -31.074379      -78.380791      -26.072180
 N         -31.404375      -77.572289      -25.344584
 H         -29.292738      -77.376404      -23.044342
 H         -30.781738      -79.293427      -26.569895
 C         -28.782995      -78.249413      -22.584904
 C         -27.291374      -78.359756      -23.006580
 C         -29.632784      -79.371033      -22.014839
 C         -26.585135      -79.502205      -22.291178
 C         -28.675150      -80.476028      -21.273520
 C         -27.422401      -80.795097      -22.062004
 H         -26.797052      -77.478790      -22.592600
 H         -27.309021      -78.580811      -24.092939
 H         -30.357420      -79.073151      -21.288160
 H         -30.164368      -79.850189      -22.892038
 H         -26.050211      -78.995369      -21.482702
 H         -25.699497      -79.892944      -22.880754
 H         -29.222319      -81.409302      -21.123283
 H         -28.555431      -80.065742      -20.245537
 H         -26.767199      -81.513947      -21.475628
 H         -27.618225      -81.352394      -23.092274
