20
 generated by VMD
 C         -62.876923     -172.138016      -55.256023
 N         -62.456390     -173.259995      -55.170807
 H         -61.575367     -171.376877      -58.849686
 H         -63.195011     -171.121811      -55.456326
 C         -62.419628     -170.681976      -58.785595
 C         -62.391296     -169.473541      -57.954113
 C         -63.712654     -171.349121      -58.882885
 C         -63.662643     -168.559875      -57.978436
 C         -64.927521     -170.394485      -59.094063
 C         -64.897507     -169.465347      -57.896122
 H         -61.521114     -168.866180      -58.305344
 H         -62.129108     -169.834015      -56.869427
 H         -63.884960     -172.006409      -59.768116
 H         -63.901123     -171.919785      -57.906872
 H         -63.676907     -168.016617      -58.958817
 H         -63.582561     -167.916428      -57.165558
 H         -65.827888     -170.940002      -59.112579
 H         -64.717506     -169.844833      -59.962852
 H         -65.772011     -168.848785      -58.117355
 H         -65.037102     -169.896591      -56.820122
