20
 generated by VMD
 C         -31.101061      -74.777153      -22.114058
 N         -31.254227      -75.887955      -21.751047
 H         -28.723156      -76.926109      -21.061600
 H         -30.731691      -74.084610      -22.913109
 C         -27.705442      -76.543831      -21.315311
 C         -26.735390      -77.428612      -21.968107
 C         -27.143595      -75.271217      -20.691061
 C         -25.758299      -76.668922      -22.959661
 C         -26.178478      -74.543800      -21.479816
 C         -25.123039      -75.449707      -22.211191
 H         -27.337990      -78.226387      -22.667782
 H         -25.997295      -77.977585      -21.335848
 H         -27.971676      -74.611465      -20.349403
 H         -26.592175      -75.523041      -19.761730
 H         -26.448324      -76.232018      -23.753748
 H         -25.079313      -77.362137      -23.515720
 H         -25.598810      -73.754555      -20.951607
 H         -26.759655      -74.081581      -22.386389
 H         -24.564653      -74.721024      -22.863554
 H         -24.538754      -75.938263      -21.349792
