20
 generated by VMD
 C         -49.729404     -141.519226      -45.502064
 N         -49.597588     -142.569412      -45.038700
 H         -51.708931     -138.753815      -46.200405
 H         -49.748070     -140.490845      -45.789654
 C         -52.174038     -139.652893      -46.500595
 C         -52.601063     -139.835999      -47.880287
 C         -53.080032     -140.376907      -45.341724
 C         -53.047562     -141.205734      -48.267620
 C         -53.489811     -141.732254      -45.847641
 C         -54.153988     -141.784866      -47.312302
 H         -51.721394     -139.452362      -48.447006
 H         -53.392643     -139.099258      -48.114861
 H         -52.531322     -140.488083      -44.381817
 H         -53.837730     -139.716629      -44.962704
 H         -52.124561     -141.927963      -48.243900
 H         -53.416557     -141.237686      -49.402584
 H         -54.160023     -142.211258      -45.208950
 H         -52.610580     -142.368332      -45.816460
 H         -54.479794     -142.903946      -47.401653
 H         -55.160721     -141.256088      -47.379364
