20
 generated by VMD
 C         -22.439320      -67.728455      -16.216648
 N         -21.316822      -67.670311      -15.910646
 H         -24.075706      -66.133301      -17.805580
 H         -23.367464      -67.763672      -16.772896
 C         -24.507145      -66.373528      -18.751413
 C         -23.873396      -66.912361      -20.009380
 C         -26.043934      -66.504700      -18.480782
 C         -24.476967      -68.304253      -20.405418
 C         -26.574442      -67.816757      -18.951813
 C         -25.988918      -68.330788      -20.399420
 H         -22.788307      -66.913368      -19.790722
 H         -24.102451      -66.232384      -20.844572
 H         -26.314350      -66.277260      -17.466757
 H         -26.566151      -65.590721      -18.921122
 H         -23.991186      -68.924637      -19.647291
 H         -23.985880      -68.649773      -21.398823
 H         -27.615711      -67.891823      -19.148945
 H         -26.336458      -68.626656      -18.192997
 H         -26.504837      -69.266800      -20.643051
 H         -26.214491      -67.461739      -21.063948
