20
 generated by VMD
 C          -1.512422      -10.688095        0.795505
 N          -0.836510      -10.650281        1.651648
 H          -3.757253      -12.969306        0.206261
 H          -4.961755      -12.533081        1.499890
 C          -4.451277      -13.362932        0.988272
 C          -3.616300      -13.926806        2.121197
 C          -5.496528      -14.294011        0.415029
 C          -4.432188      -14.523529        3.224110
 C          -6.255371      -14.969458        1.526980
 C          -5.413401      -15.558099        2.680325
 H          -2.946667      -13.146419        2.649905
 H          -2.857035      -14.680274        1.781811
 H          -6.153418      -13.706261       -0.202321
 H          -4.932739      -14.999556       -0.116356
 H          -5.084663      -13.818937        3.738763
 H          -3.920356      -15.042111        4.065287
 H          -6.887748      -15.770039        1.097281
 H          -6.907384      -14.245410        2.045686
 H          -6.079118      -15.795661        3.472340
 H          -4.897772      -16.459171        2.398551
