20
 generated by VMD
 C         -33.637650      -96.090416      -25.338469
 N         -33.912327      -96.947212      -26.108543
 H         -34.712734      -94.301086      -27.351099
 H         -33.517796      -95.200310      -24.821156
 C         -34.823154      -93.995888      -28.367075
 C         -35.989147      -94.391930      -29.257616
 C         -33.520485      -93.623550      -29.070948
 C         -36.132416      -93.546402      -30.523033
 C         -33.782001      -92.777023      -30.314846
 C         -34.857346      -93.402313      -31.228802
 H         -36.863232      -94.327232      -28.621016
 H         -35.903263      -95.473633      -29.658932
 H         -32.852379      -93.034416      -28.391367
 H         -33.032898      -94.596626      -29.381870
 H         -36.476948      -92.523979      -30.343906
 H         -36.960606      -94.012421      -31.182657
 H         -32.944817      -92.658043      -30.913280
 H         -33.991299      -91.748627      -29.856857
 H         -35.044563      -92.676758      -32.033070
 H         -34.403915      -94.348831      -31.899351
