20
 generated by VMD
 C          -6.623699      -22.586555        1.984282
 N          -6.189284      -22.894995        2.983663
 H          -5.592161      -20.118578       -0.341348
 H          -7.241323      -20.793913       -0.284798
 C          -6.454766      -20.423759       -1.003325
 C          -5.948764      -21.492573       -1.945380
 C          -7.182810      -19.295523       -1.715595
 C          -7.034750      -22.118742       -2.903587
 C          -8.279223      -19.834652       -2.689073
 C          -7.690285      -20.945774       -3.688236
 H          -5.416913      -22.241138       -1.400469
 H          -5.146927      -21.015915       -2.523427
 H          -7.719052      -18.649038       -0.971852
 H          -6.501003      -18.768734       -2.399991
 H          -7.799578      -22.697554       -2.353454
 H          -6.489232      -22.748228       -3.635048
 H          -8.602410      -18.975126       -3.304525
 H          -9.134028      -20.318968       -2.181623
 H          -8.535355      -21.322472       -4.325739
 H          -6.957533      -20.442102       -4.369602
