20
 generated by VMD
 C         -60.083408     -153.321136      -51.689034
 N         -60.268223     -152.167358      -51.411339
 H         -57.268528     -153.812881      -49.799431
 H         -59.880291     -154.340302      -52.095055
 C         -56.458721     -153.140015      -50.054092
 C         -55.095474     -153.190781      -49.484695
 C         -56.798336     -151.893051      -50.741077
 C         -54.015186     -152.785858      -50.326180
 C         -55.565308     -151.198669      -51.373699
 C         -54.152931     -151.339996      -50.753654
 H         -54.973629     -154.152573      -49.068100
 H         -55.057274     -152.444504      -48.700001
 H         -57.589939     -152.047424      -51.499527
 H         -57.202942     -151.171616      -50.039906
 H         -54.136425     -153.384705      -51.227814
 H         -53.000534     -152.861389      -49.794266
 H         -55.974819     -150.099014      -51.513039
 H         -55.478230     -151.468567      -52.392780
 H         -53.424511     -151.159134      -51.623798
 H         -54.182285     -150.665970      -49.983189
