20
 generated by VMD
 C         -11.132634      -40.699192       -7.381868
 N         -11.614174      -40.384373       -6.404468
 H         -13.757355      -40.856792       -8.567324
 H         -15.023290      -39.962830       -9.255214
 C         -14.705908      -40.972721       -9.051314
 C         -15.614210      -41.688038       -8.107410
 C         -14.495306      -41.747841      -10.323385
 C         -16.890345      -42.066525       -8.798439
 C         -15.699471      -42.395111      -11.009309
 C         -16.660292      -42.989952       -9.977185
 H         -15.766318      -40.979046       -7.244276
 H         -15.124936      -42.540203       -7.632571
 H         -14.026870      -41.060429      -11.073937
 H         -13.724707      -42.480377      -10.156554
 H         -17.451500      -41.202835       -9.090579
 H         -17.595592      -42.580811       -8.129307
 H         -15.443506      -43.166954      -11.709905
 H         -16.317610      -41.625114      -11.522667
 H         -17.629854      -43.095490      -10.520934
 H         -16.249903      -43.930759       -9.603821
