20
 generated by VMD
 C         -28.294764      -84.661560      -26.180672
 N         -28.183510      -83.977859      -27.134602
 H         -31.265146      -84.646255      -26.158165
 H         -28.504911      -85.263855      -25.250786
 C         -31.574715      -85.535339      -25.750803
 C         -31.490721      -85.722870      -24.370527
 C         -31.909098      -86.541840      -26.670517
 C         -32.917305      -86.110764      -23.963694
 C         -33.234383      -87.188179      -26.337738
 C         -33.411434      -87.349709      -24.770933
 H         -31.140158      -84.907372      -23.853403
 H         -30.949183      -86.647980      -24.122078
 H         -31.810093      -86.121277      -27.706139
 H         -31.089191      -87.217239      -26.596331
 H         -33.614975      -85.283844      -24.183250
 H         -32.757172      -86.455399      -22.910711
 H         -33.212296      -88.180138      -26.875362
 H         -34.177486      -86.644386      -26.567318
 H         -34.465935      -87.593620      -24.576540
 H         -32.817287      -88.259422      -24.437910
