20
 generated by VMD
 C         -60.160400     -157.351593      -56.239857
 N         -59.586182     -158.231979      -56.617184
 H         -60.145794     -157.527679      -52.613426
 H         -60.660091     -156.500320      -55.782291
 C         -59.343384     -158.232880      -52.870365
 C         -58.010319     -157.842773      -52.281387
 C         -59.689137     -159.619171      -53.142200
 C         -57.752392     -158.770096      -51.151375
 C         -59.414886     -160.577911      -51.987091
 C         -57.964069     -160.259415      -51.481194
 H         -58.123379     -156.849579      -51.936146
 H         -57.271385     -157.921204      -53.085312
 H         -60.703880     -159.703064      -53.436455
 H         -59.248711     -159.843552      -54.144123
 H         -58.453506     -158.499496      -50.339943
 H         -56.828056     -158.504364      -50.821438
 H         -59.456718     -161.611938      -52.282005
 H         -60.130245     -160.440353      -51.194477
 H         -57.833614     -160.755707      -50.510746
 H         -57.266743     -160.573196      -52.236805
