20
 generated by VMD
 C         -23.447971      -53.285004      -14.098192
 N         -24.137369      -53.173603      -14.981769
 H         -20.497726      -55.388645      -15.251761
 H         -22.584768      -53.219372      -13.324769
 C         -19.537033      -55.434372      -14.597602
 C         -19.179617      -54.164646      -13.802275
 C         -18.543137      -56.473419      -14.780589
 C         -18.220022      -54.494835      -12.585442
 C         -17.629951      -56.681076      -13.591747
 C         -17.067356      -55.385513      -13.023396
 H         -20.058756      -53.670959      -13.305420
 H         -18.542114      -53.513329      -14.450476
 H         -19.157459      -57.362595      -14.973767
 H         -17.979887      -56.254204      -15.752975
 H         -18.876842      -54.977604      -11.850564
 H         -17.794287      -53.598122      -12.150151
 H         -16.848618      -57.364204      -13.802035
 H         -18.229240      -57.140087      -12.752604
 H         -16.377577      -55.582653      -12.171257
 H         -16.412010      -54.862873      -13.753463
