20
 generated by VMD
 C         -50.180634     -145.193039      -44.870422
 N         -49.670895     -144.408279      -44.237732
 H         -52.706059     -142.686859      -45.794071
 H         -50.797607     -145.924362      -45.304382
 C         -53.286331     -142.612717      -46.730118
 C         -52.563400     -142.775650      -48.006153
 C         -54.642830     -141.908173      -46.754860
 C         -53.345493     -142.875839      -49.309784
 C         -55.410339     -142.274704      -48.041122
 C         -54.550514     -141.976761      -49.341656
 H         -51.996777     -143.731537      -48.032181
 H         -51.981663     -141.897537      -48.164177
 H         -55.078594     -142.364273      -45.875076
 H         -54.563076     -140.876968      -46.583038
 H         -53.698971     -143.955582      -49.426758
 H         -52.627178     -142.682571      -50.154999
 H         -56.267685     -141.598785      -48.103184
 H         -55.815166     -143.222778      -48.023373
 H         -55.164284     -142.131042      -50.236340
 H         -54.088524     -140.960785      -49.302856
