20
 generated by VMD
 C         -78.776550     -209.335327      -76.741516
 N         -79.765442     -208.753906      -77.101212
 H         -78.111038     -208.956482      -72.837456
 H         -77.935219     -209.811478      -76.368355
 C         -77.976845     -209.905502      -72.303398
 C         -76.879082     -210.102844      -71.393021
 C         -79.171295     -210.821396      -72.375961
 C         -77.484154     -210.723404      -70.074753
 C         -79.475197     -211.660980      -71.234467
 C         -78.290169     -211.940628      -70.390045
 H         -76.334229     -209.138092      -71.265388
 H         -76.200798     -210.842667      -71.774391
 H         -80.001228     -210.255859      -72.777557
 H         -78.988228     -211.658936      -73.150200
 H         -77.970268     -209.961060      -69.453415
 H         -76.692070     -211.051605      -69.387260
 H         -79.880394     -212.580246      -71.407990
 H         -80.260551     -211.074661      -70.589302
 H         -78.688484     -212.201981      -69.382973
 H         -77.728294     -212.812332      -70.783752
