20
 generated by VMD
 C         -50.714798     -129.158783      -42.854988
 N         -50.349495     -128.272339      -42.218803
 H         -48.453632     -127.792625      -40.270786
 H         -50.897469     -130.037292      -43.442051
 C         -47.432686     -127.675896      -40.575935
 C         -46.271351     -128.495834      -40.119827
 C         -47.200298     -126.252861      -41.165703
 C         -45.037788     -128.434494      -40.970631
 C         -45.950043     -126.197632      -42.066898
 C         -44.843590     -127.002480      -41.330276
 H         -46.631893     -129.506409      -40.116009
 H         -46.082306     -128.232666      -39.072060
 H         -48.167953     -125.991356      -41.642059
 H         -46.944237     -125.683113      -40.153954
 H         -45.223953     -129.024170      -41.811119
 H         -44.269855     -128.833374      -40.362926
 H         -45.684422     -125.185608      -42.439304
 H         -46.195244     -126.695320      -43.005615
 H         -43.962669     -126.885727      -42.059967
 H         -44.527794     -126.412140      -40.440056
