20
 generated by VMD
 C         -63.428547     -174.804413      -55.503147
 N         -62.533726     -174.424301      -56.164906
 H         -65.197250     -173.396484      -57.867432
 H         -64.275406     -175.225754      -54.971157
 C         -64.820129     -172.493027      -58.285587
 C         -65.017380     -171.091782      -57.576756
 C         -64.560539     -172.491226      -59.795952
 C         -64.082397     -170.004868      -58.133831
 C         -63.431099     -171.561310      -60.195038
 C         -63.943348     -170.168289      -59.693974
 H         -64.935646     -171.269455      -56.385963
 H         -66.036438     -170.864105      -57.739864
 H         -64.348053     -173.647079      -59.995674
 H         -65.567490     -172.224518      -60.385868
 H         -63.082203     -170.116882      -57.752934
 H         -64.455482     -169.029129      -57.885239
 H         -63.168980     -171.564148      -61.243824
 H         -62.553150     -171.880630      -59.664089
 H         -63.260906     -169.345459      -60.079182
 H         -64.913239     -169.936783      -60.111427
