20
 generated by VMD
 C         -52.150211     -146.265137      -44.080654
 N         -51.690235     -146.471024      -45.083763
 H         -53.540989     -145.812302      -47.034607
 H         -52.737713     -146.175903      -43.154358
 C         -53.819290     -144.907074      -47.638348
 C         -52.844948     -144.909729      -48.833462
 C         -54.909569     -143.823166      -47.520405
 C         -53.452522     -144.203217      -50.207520
 C         -55.366180     -143.192001      -48.841015
 C         -54.261784     -142.935333      -49.862453
 H         -52.438419     -145.937927      -49.052860
 H         -52.045025     -144.322525      -48.605644
 H         -55.799046     -144.389771      -47.116108
 H         -54.503757     -142.972656      -46.744072
 H         -54.275837     -144.833328      -50.643105
 H         -52.605900     -143.947266      -50.909798
 H         -55.723576     -142.195892      -48.482971
 H         -56.160011     -143.749847      -49.355000
 H         -54.688396     -142.494095      -50.716438
 H         -53.606922     -142.116287      -49.606682
