20
 generated by VMD
 C         -44.969463     -122.619781      -35.433163
 N         -45.281288     -123.670288      -35.008911
 H         -45.244190     -122.807274      -39.257839
 H         -44.583973     -121.712143      -35.917767
 C         -44.945663     -121.803253      -39.547260
 C         -43.481976     -121.359352      -39.570869
 C         -45.910393     -120.734917      -39.509655
 C         -43.237957     -120.541245      -40.755795
 C         -45.824692     -119.847404      -40.722012
 C         -44.417355     -119.373734      -40.947281
 H         -42.904175     -122.253410      -39.779346
 H         -43.289982     -120.942650      -38.513561
 H         -46.855629     -121.158836      -39.388985
 H         -45.774467     -120.066620      -38.701149
 H         -43.218887     -121.205574      -41.657429
 H         -42.324444     -119.904884      -40.605621
 H         -46.483646     -118.966286      -40.762669
 H         -46.008106     -120.456223      -41.695492
 H         -44.211021     -118.791710      -41.814407
 H         -44.197567     -118.724144      -40.173088
