20
 generated by VMD
 C         -22.026173      -55.205872      -17.339453
 N         -22.421276      -55.355652      -18.464966
 H         -21.077496      -56.176102      -14.201719
 H         -21.884981      -54.731499      -16.296814
 C         -20.961485      -57.281471      -14.181979
 C         -20.929049      -58.292500      -12.838690
 C         -20.010248      -57.867897      -15.289323
 C         -20.864670      -59.833458      -13.143575
 C         -19.962225      -59.443020      -15.419335
 C         -19.665331      -60.154144      -14.099114
 H         -21.839951      -58.141506      -12.291019
 H         -20.032345      -58.022903      -12.213667
 H         -20.330914      -57.400578      -16.217346
 H         -18.993044      -57.528828      -15.146828
 H         -21.757336      -60.143040      -13.673060
 H         -20.906214      -60.455135      -12.215609
 H         -19.137701      -59.770248      -16.037277
 H         -20.855158      -59.866932      -15.943892
 H         -19.583399      -61.229710      -14.249434
 H         -18.708408      -59.786350      -13.562429
