20
 generated by VMD
 C         -41.376404     -102.318375      -34.529507
 N         -41.263294     -101.882187      -35.575649
 H         -39.597229     -104.304596      -32.233955
 H         -41.125965     -102.825790      -33.583817
 C         -38.596924     -104.433327      -31.920502
 C         -37.554749     -103.791893      -32.842667
 C         -38.177765     -105.576111      -31.012804
 C         -36.182728     -103.604050      -32.246750
 C         -37.015526     -105.012260      -30.261259
 C         -35.840443     -104.683777      -31.291855
 H         -38.136776     -102.912521      -33.124241
 H         -37.428005     -104.524681      -33.655445
 H         -39.101635     -105.753639      -30.377701
 H         -37.892143     -106.459915      -31.513432
 H         -36.082241     -102.729584      -31.659304
 H         -35.391361     -103.567238      -32.994930
 H         -36.593952     -105.806664      -29.556553
 H         -37.239399     -104.184677      -29.602154
 H         -34.909470     -104.429092      -30.737921
 H         -35.712311     -105.484665      -31.963675
