20
 generated by VMD
 C         -57.389023     -164.127319      -56.682175
 N         -57.264668     -163.072174      -57.240982
 H         -59.840786     -165.410477      -54.669594
 H         -57.436520     -165.095215      -56.144833
 C         -60.831905     -164.964859      -54.658802
 C         -61.738651     -165.352783      -53.500942
 C         -61.440006     -164.379440      -55.923580
 C         -63.140953     -164.819626      -53.559437
 C         -62.833046     -163.809525      -55.843262
 C         -63.651493     -164.639832      -54.938107
 H         -61.229790     -164.885483      -52.570717
 H         -61.859112     -166.462021      -53.434937
 H         -60.688538     -163.599045      -56.074451
 H         -61.283745     -165.162582      -56.736423
 H         -63.195374     -163.827652      -53.029186
 H         -63.998451     -165.354446      -53.002735
 H         -63.368179     -163.941879      -56.751671
 H         -62.939686     -162.648392      -55.400684
 H         -64.634048     -164.244019      -54.889664
 H         -63.795536     -165.605194      -55.314014
