20
 generated by VMD
 C         -63.025082     -174.878647      -54.680653
 N         -62.981255     -174.309830      -55.710766
 H         -63.825001     -173.342224      -57.998421
 H         -62.907978     -175.424545      -53.753719
 C         -64.012611     -172.327148      -58.426048
 C         -64.357803     -171.086731      -57.586052
 C         -64.448273     -172.211395      -59.906723
 C         -63.853256     -169.807816      -58.213978
 C         -64.067085     -170.867981      -60.479870
 C         -64.393234     -169.710190      -59.643673
 H         -63.843361     -171.336380      -56.533482
 H         -65.401169     -171.060425      -57.402161
 H         -63.869877     -173.071152      -60.353310
 H         -65.565620     -172.408859      -59.795364
 H         -62.688717     -169.848724      -58.299633
 H         -64.187241     -168.868683      -57.664074
 H         -64.624084     -170.731842      -61.377800
 H         -63.057262     -170.755920      -60.860695
 H         -63.917393     -168.764786      -60.050430
 H         -65.481575     -169.572128      -59.634911
