20
 generated by VMD
 C         -13.211181      -31.042189       -8.256256
 N         -12.793233      -30.082340       -8.636189
 H         -11.570301      -32.624184       -6.856260
 H         -11.978523      -32.278797       -5.108046
 C         -11.411395      -32.948971       -5.788603
 C          -9.931562      -33.122395       -5.378764
 C         -12.168784      -34.302261       -5.759407
 C          -9.907181      -33.868332       -3.971968
 C         -12.120161      -35.013046       -4.415373
 C         -10.642209      -35.216244       -4.073115
 H          -9.472496      -32.138180       -5.308754
 H          -9.403037      -33.788841       -6.121109
 H         -13.233557      -34.204449       -5.973901
 H         -11.707787      -34.952538       -6.489367
 H         -10.308734      -33.196205       -3.263199
 H          -8.901978      -34.131058       -3.762534
 H         -12.574868      -36.043720       -4.526280
 H         -12.638609      -34.461487       -3.718199
 H         -10.565080      -35.604393       -3.032321
 H         -10.194699      -35.905018       -4.765552
