20
 generated by VMD
 C         -22.808834      -52.439167      -12.101603
 N         -23.368484      -52.462891      -11.084209
 H         -19.899960      -52.945007      -13.890708
 H         -22.180277      -52.315834      -12.766788
 C         -18.876446      -53.028809      -13.886515
 C         -18.146473      -52.061848      -14.748851
 C         -18.190052      -54.080196      -13.089204
 C         -16.655855      -52.160843      -14.559287
 C         -17.080376      -53.509693      -12.277103
 C         -16.232588      -52.398533      -13.101868
 H         -18.608519      -51.071163      -14.551266
 H         -18.238264      -52.366493      -15.834742
 H         -18.914270      -54.570843      -12.415904
 H         -17.872234      -54.846245      -13.776208
 H         -16.203474      -51.235413      -14.883802
 H         -16.182550      -52.941933      -15.141717
 H         -16.382963      -54.363815      -11.973357
 H         -17.515585      -53.051392      -11.408836
 H         -16.136549      -51.426628      -12.547106
 H         -15.192473      -52.780640      -13.081339
