20
 generated by VMD
 C         -60.075699     -169.684311      -55.393425
 N         -59.539753     -168.736435      -55.139874
 H         -63.586723     -170.485550      -56.680496
 H         -60.491791     -170.643402      -55.618042
 C         -63.322033     -169.429688      -56.875732
 C         -62.718563     -169.003082      -58.247036
 C         -63.646107     -168.469498      -55.781754
 C         -63.405052     -167.709152      -58.625328
 C         -64.258568     -167.192825      -56.441444
 C         -63.396687     -166.648132      -57.539478
 H         -62.729111     -169.711517      -58.964123
 H         -61.614136     -168.957886      -57.888203
 H         -64.250076     -168.777130      -55.042099
 H         -62.789680     -168.125427      -55.352589
 H         -64.448425     -168.067734      -58.824207
 H         -63.041706     -167.249054      -59.584385
 H         -64.464630     -166.504074      -55.637089
 H         -65.199379     -167.445923      -56.781876
 H         -63.856510     -165.812485      -58.012833
 H         -62.376598     -166.445511      -57.209911
