20
 generated by VMD
 C         -40.706383     -100.095520      -29.744415
 N         -40.340946     -100.218269      -28.642397
 H         -37.331886     -100.122856      -30.542154
 H         -40.939236      -99.731873      -30.687826
 C         -36.472595      -99.531837      -30.853806
 C         -36.029842      -99.436378      -32.246803
 C         -35.408470      -99.272697      -29.711834
 C         -34.848099      -98.412811      -32.491142
 C         -34.207848      -98.283722      -29.896883
 C         -33.674587      -98.280617      -31.433256
 H         -36.811127      -99.105576      -32.941799
 H         -35.768791     -100.503288      -32.495636
 H         -35.977596      -99.086983      -28.786110
 H         -34.853043     -100.261719      -29.542517
 H         -35.320374      -97.368622      -32.695328
 H         -34.399223      -98.658905      -33.491623
 H         -33.365719      -98.682106      -29.381437
 H         -34.604378      -97.270828      -29.551077
 H         -33.008488      -97.355797      -31.659962
 H         -33.059982      -99.128342      -31.603592
