20
 generated by VMD
 C         -78.658539     -210.297104      -76.345337
 N         -77.541237     -210.527771      -76.674690
 H         -79.783600     -212.037750      -74.723694
 H         -79.616608     -210.004135      -76.030090
 C         -79.673737     -212.414062      -73.705055
 C         -78.309586     -212.558365      -73.109093
 C         -80.869598     -213.119690      -73.218788
 C         -78.429543     -212.757507      -71.481514
 C         -80.832008     -213.558563      -71.732101
 C         -79.382980     -213.870010      -71.229385
 H         -77.617134     -211.766464      -73.441574
 H         -77.799232     -213.437637      -73.535126
 H         -81.687271     -212.453583      -73.361366
 H         -80.944374     -214.132294      -73.739334
 H         -78.801285     -211.852478      -70.971375
 H         -77.430153     -212.912247      -71.099403
 H         -81.353554     -214.467514      -71.747383
 H         -81.558479     -212.904816      -71.184586
 H         -79.426506     -214.122589      -70.161369
 H         -79.105965     -214.620148      -71.845863
