20
 generated by VMD
 C         -22.551918      -55.177464      -15.376720
 N         -23.236391      -55.223301      -16.316614
 H         -19.075846      -54.548237      -15.497647
 H         -21.896654      -54.879524      -14.458680
 C         -19.175814      -55.354050      -14.809515
 C         -19.095045      -55.235416      -13.292595
 C         -19.488920      -56.709072      -15.455024
 C         -19.665421      -56.492599      -12.596120
 C         -19.472412      -57.959034      -14.602042
 C         -18.997364      -57.765434      -13.154961
 H         -19.558388      -54.294735      -13.029380
 H         -18.074217      -55.068562      -12.911227
 H         -20.376284      -56.730980      -16.062307
 H         -18.675257      -56.718758      -16.218212
 H         -20.724600      -56.495129      -12.812024
 H         -19.441191      -56.489086      -11.493221
 H         -19.016548      -58.818844      -15.065154
 H         -20.540316      -58.346996      -14.583098
 H         -19.443068      -58.586445      -12.564552
 H         -17.858883      -57.742352      -13.045615
