20
 generated by VMD
 C         -78.513680     -209.149902      -77.137672
 N         -78.011452     -209.472809      -78.106659
 H         -79.188499     -211.510315      -74.016823
 H         -79.072884     -208.787872      -76.237442
 C         -79.216156     -212.117569      -73.138664
 C         -78.011604     -212.102798      -72.190361
 C         -80.364494     -212.965393      -72.853142
 C         -78.168167     -212.607056      -70.696777
 C         -80.677849     -213.126038      -71.314545
 C         -79.274681     -213.608612      -70.670715
 H         -77.703941     -211.079468      -72.178833
 H         -77.169067     -212.656265      -72.559387
 H         -81.312355     -212.571930      -73.352600
 H         -80.228340     -213.941391      -73.244461
 H         -78.375801     -211.711487      -70.070679
 H         -77.200897     -213.099731      -70.331528
 H         -81.381706     -213.900528      -71.182304
 H         -80.861557     -212.080139      -70.969597
 H         -79.563744     -213.786652      -69.646744
 H         -79.033478     -214.580231      -71.278412
