20
 generated by VMD
 C         -38.360031     -109.714561      -36.470455
 N         -37.616894     -109.037903      -35.883171
 H         -40.687180     -111.312996      -36.857616
 H         -39.115086     -110.292084      -36.918739
 C         -41.348171     -111.767456      -36.134716
 C         -42.055111     -113.060257      -36.335205
 C         -41.982006     -110.757439      -35.195347
 C         -42.395023     -113.775078      -35.014286
 C         -42.070705     -111.487549      -33.793507
 C         -42.784485     -112.901772      -33.899315
 H         -41.253918     -113.604927      -36.808964
 H         -42.978611     -112.967346      -36.973152
 H         -41.491199     -109.710434      -35.064560
 H         -42.992146     -110.498009      -35.626751
 H         -41.502689     -114.271431      -34.763187
 H         -43.053764     -114.665016      -35.155689
 H         -42.473167     -110.881371      -33.010506
 H         -41.104809     -111.749931      -33.489620
 H         -42.654385     -113.327217      -32.953018
 H         -43.951664     -112.678841      -34.067936
