20
 generated by VMD
 C         -69.560219     -180.077454      -61.856091
 N         -69.398918     -181.098419      -62.411751
 H         -66.792404     -180.396133      -59.129295
 H         -69.594971     -179.153107      -61.223454
 C         -66.180573     -179.600937      -59.646973
 C         -65.323219     -179.712967      -60.896866
 C         -66.090683     -178.266769      -58.881042
 C         -65.364922     -178.491165      -61.678574
 C         -65.797852     -176.959763      -59.728130
 C         -64.913147     -177.231384      -61.014446
 H         -65.771896     -180.584396      -61.443665
 H         -64.230545     -179.924698      -60.566631
 H         -67.029938     -178.132996      -58.396046
 H         -65.363411     -178.215012      -58.026672
 H         -66.387367     -178.353119      -62.126320
 H         -64.750198     -178.622299      -62.633842
 H         -65.209839     -176.321304      -59.041725
 H         -66.640366     -176.340652      -59.936153
 H         -65.226273     -176.421844      -61.557976
 H         -63.906254     -177.138062      -60.649986
