20
 generated by VMD
 C         -19.500977      -60.862465      -17.520100
 N         -20.075420      -59.856068      -17.739267
 H         -22.485634      -60.310883      -16.287169
 H         -18.726959      -61.656918      -17.385332
 C         -22.975338      -61.244709      -16.302244
 C         -23.326780      -61.769878      -17.602160
 C         -23.632132      -61.855431      -15.041528
 C         -22.922018      -63.280731      -17.558290
 C         -23.211107      -63.336216      -14.968163
 C         -23.381674      -64.063820      -16.309229
 H         -22.730547      -61.397785      -18.483292
 H         -24.404356      -61.660709      -17.868587
 H         -23.203817      -61.382000      -14.030572
 H         -24.741457      -61.753628      -15.132479
 H         -21.840231      -63.212921      -17.426979
 H         -23.098005      -63.783867      -18.505587
 H         -23.721355      -63.846516      -14.161553
 H         -22.166578      -63.421310      -14.744656
 H         -22.634037      -64.910431      -16.371889
 H         -24.419231      -64.427727      -16.407690
