20
 generated by VMD
 C          -7.028265      -23.393190        2.192703
 N          -7.215289      -22.368475        1.755385
 H          -8.402368      -23.373962       -1.026288
 H          -9.283915      -22.483952       -2.186393
 C          -8.284123      -22.651001       -1.802172
 C          -7.464625      -23.373373       -2.845940
 C          -7.703169      -21.368982       -1.293518
 C          -7.002358      -22.420122       -3.987617
 C          -7.252606      -20.430836       -2.417632
 C          -6.319353      -21.147297       -3.409221
 H          -7.981296      -24.159319       -3.316580
 H          -6.641165      -23.814814       -2.301869
 H          -8.430377      -20.965677       -0.634580
 H          -6.779884      -21.538860       -0.704179
 H          -7.979169      -22.113535       -4.408942
 H          -6.321213      -22.964516       -4.644742
 H          -6.816455      -19.545784       -1.993047
 H          -8.168049      -20.179161       -2.946432
 H          -6.014454      -20.467497       -4.175957
 H          -5.455178      -21.455868       -2.877356
