20
 generated by VMD
 C         -75.229889     -201.345444      -66.319397
 N         -75.656929     -202.226624      -65.674850
 H         -76.155777     -199.451767      -69.510986
 H         -74.756813     -200.545456      -66.935715
 C         -75.211929     -199.083450      -69.224960
 C         -74.929245     -198.158386      -68.091347
 C         -74.072182     -199.691895      -70.074051
 C         -73.394829     -198.026398      -68.096245
 C         -73.057983     -198.688919      -70.551834
 C         -72.865814     -197.568863      -69.529533
 H         -75.267326     -198.566299      -67.235565
 H         -75.242958     -197.117416      -68.314171
 H         -73.571716     -200.561691      -69.597420
 H         -74.543839     -200.302429      -70.945610
 H         -72.903183     -198.936447      -67.723778
 H         -73.024704     -197.309204      -67.395966
 H         -73.532547     -198.359711      -71.461159
 H         -72.111717     -199.022369      -70.770149
 H         -71.778130     -197.319321      -69.546143
 H         -73.429802     -196.655670      -69.943237
