20
 generated by VMD
 C          -1.846362       -8.661208       -0.401965
 N          -2.181004       -7.926742        0.346514
 H          -3.272532       -9.272669        2.666554
 H          -1.931165      -10.521356        2.723493
 C          -2.948218      -10.341219        2.945531
 C          -3.694459      -11.423241        2.188473
 C          -3.250016      -10.504024        4.414117
 C          -3.441164      -12.870482        2.625322
 C          -2.978698      -11.880552        4.942700
 C          -3.725346      -12.965337        4.160892
 H          -3.470110      -11.401396        1.137693
 H          -4.750674      -11.215118        2.408843
 H          -2.659091       -9.798760        4.957263
 H          -4.299689      -10.296459        4.607860
 H          -2.465888      -13.299901        2.364101
 H          -4.243304      -13.476362        2.153828
 H          -3.296102      -11.971031        5.990670
 H          -1.904168      -12.203825        4.974512
 H          -3.440419      -13.945716        4.562499
 H          -4.835166      -12.871722        4.281321
