20
 generated by VMD
 C         -12.538024      -30.214928       -7.875635
 N         -13.564400      -29.890612       -7.593452
 H         -11.378003      -30.323019       -5.154633
 H         -10.470510      -30.594036       -3.632279
 C         -10.831877      -31.086903       -4.591733
 C          -9.698096      -31.565199       -5.400297
 C         -11.707028      -32.193924       -4.070973
 C          -8.899469      -32.732166       -4.724781
 C         -10.954361      -33.377682       -3.541018
 C          -9.907519      -33.877613       -4.441574
 H          -9.028009      -30.670034       -5.677609
 H         -10.010064      -31.957521       -6.340299
 H         -12.468594      -31.781921       -3.392948
 H         -12.276947      -32.640255       -4.897276
 H          -8.458009      -32.311325       -3.830134
 H          -8.022020      -33.014381       -5.306912
 H         -11.653524      -34.131126       -3.330084
 H         -10.534482      -33.103443       -2.516163
 H          -9.441804      -34.772671       -4.045881
 H         -10.325997      -34.233955       -5.428332
