20
 generated by VMD
 C         -60.979939     -156.228134      -54.846626
 N         -60.219250     -155.585617      -55.447517
 H         -59.810764     -156.878235      -51.855183
 H         -61.574226     -156.858688      -54.240452
 C         -58.702236     -156.761948      -51.774399
 C         -58.017857     -155.425583      -51.692432
 C         -57.845123     -157.913010      -52.006668
 C         -56.735279     -155.552750      -50.716682
 C         -56.690956     -158.083771      -51.135250
 C         -55.894356     -156.771439      -51.063839
 H         -58.643059     -154.760147      -51.230621
 H         -57.754852     -155.055756      -52.694851
 H         -58.432613     -158.808701      -51.981094
 H         -57.379951     -157.859970      -53.046047
 H         -57.062805     -155.736664      -49.595772
 H         -55.988224     -154.732910      -50.867722
 H         -56.010818     -158.815536      -51.369305
 H         -57.185833     -158.233582      -50.149490
 H         -55.137089     -156.935120      -50.239902
 H         -55.334873     -156.526840      -51.958080
