20
 generated by VMD
 C          -6.975403      -22.953062        2.326865
 N          -6.039734      -22.741678        2.920213
 H          -6.137436      -20.563128       -0.139774
 H          -7.675385      -21.382925       -0.633972
 C          -6.765180      -20.839125       -1.026043
 C          -6.190975      -21.826017       -1.998821
 C          -7.225917      -19.579157       -1.673393
 C          -7.046595      -22.136656       -3.220863
 C          -8.122384      -19.869141       -2.824055
 C          -7.513858      -20.811415       -3.852885
 H          -5.796925      -22.650229       -1.489909
 H          -5.217205      -21.404633       -2.393825
 H          -7.803838      -18.968552       -0.954245
 H          -6.292627      -19.150372       -2.068776
 H          -7.978235      -22.646460       -2.898831
 H          -6.463048      -22.721066       -3.975425
 H          -8.319616      -18.932604       -3.422349
 H          -9.028820      -20.345171       -2.386664
 H          -8.237339      -21.025644       -4.680171
 H          -6.662121      -20.235733       -4.346008
