20
 generated by VMD
 C         -35.714417      -97.876167      -26.727308
 N         -36.304974      -97.846336      -25.714935
 H         -36.012287      -94.881035      -28.082075
 H         -34.998199      -97.998314      -27.601933
 C         -35.426865      -95.141533      -28.975220
 C         -35.773052      -96.045013      -30.126320
 C         -34.093128      -94.346085      -29.024773
 C         -35.400364      -95.356651      -31.479620
 C         -33.873634      -93.686249      -30.392172
 C         -34.133781      -94.633186      -31.603767
 H         -36.819393      -96.410652      -30.069092
 H         -35.068096      -96.908585      -30.132309
 H         -34.015461      -93.556068      -28.271322
 H         -33.241364      -95.038109      -28.733116
 H         -36.070206      -94.580765      -31.800667
 H         -35.362755      -96.112076      -32.304195
 H         -32.857136      -93.508720      -30.395306
 H         -34.244110      -92.614449      -30.438457
 H         -34.056961      -93.988449      -32.625687
 H         -33.279037      -95.391335      -31.542112
