20
 generated by VMD
 C         -69.857574     -183.125778      -65.847023
 N         -70.959068     -182.880371      -65.770042
 H         -67.542519     -183.606750      -63.060970
 H         -68.823746     -183.441818      -65.991028
 C         -67.390770     -182.996872      -62.168594
 C         -67.780243     -183.769302      -60.868496
 C         -67.356873     -181.511200      -62.161320
 C         -66.883835     -183.290192      -59.756824
 C         -66.516029     -181.039505      -61.014065
 C         -66.906944     -181.739014      -59.694180
 H         -67.645393     -184.838852      -61.028660
 H         -68.746147     -183.473770      -60.786442
 H         -66.787209     -181.094208      -63.088352
 H         -68.378456     -181.221451      -62.154408
 H         -65.866432     -183.830032      -60.070732
 H         -67.149391     -183.659973      -58.726013
 H         -66.526199     -180.000046      -60.774101
 H         -65.472519     -181.233505      -61.314388
 H         -66.016373     -181.548828      -58.997219
 H         -67.891312     -181.362442      -59.259880
