20
 generated by VMD
 C         -70.066017     -184.058472      -65.959892
 N         -69.013992     -183.809891      -66.404251
 H         -69.091698     -184.210144      -63.495861
 H         -71.124153     -184.220154      -65.573097
 C         -68.764549     -183.946396      -62.531406
 C         -69.012863     -184.613571      -61.299019
 C         -67.981628     -182.682861      -62.585228
 C         -67.821190     -184.733292      -60.404675
 C         -67.002594     -182.513733      -61.448044
 C         -67.409958     -183.224609      -60.127281
 H         -69.286186     -185.615906      -61.618744
 H         -69.820633     -184.297943      -60.620594
 H         -67.580803     -182.574615      -63.579372
 H         -68.576935     -181.799820      -62.533318
 H         -66.910416     -185.015228      -60.896961
 H         -67.847069     -185.304596      -59.485706
 H         -66.734055     -181.471130      -61.454697
 H         -66.031120     -183.008789      -61.718075
 H         -66.446289     -183.376083      -59.561188
 H         -68.161812     -182.724167      -59.641293
