20
 generated by VMD
 C         -50.926159     -130.869705      -45.983418
 N         -50.447849     -130.038391      -46.652172
 H         -47.880096     -132.147507      -44.497784
 H         -51.385761     -131.670212      -45.469181
 C         -48.128242     -132.311066      -43.459145
 C         -48.504742     -133.698334      -42.941071
 C         -48.177143     -131.082870      -42.538567
 C         -48.170681     -133.894180      -41.448383
 C         -47.842304     -131.521545      -41.112411
 C         -48.581455     -132.751068      -40.606144
 H         -48.019623     -134.600601      -43.432667
 H         -49.545708     -133.949921      -43.097546
 H         -47.545712     -130.358551      -42.969162
 H         -49.195549     -130.687134      -42.776493
 H         -47.136459     -134.086243      -41.195381
 H         -48.724865     -134.730774      -41.021519
 H         -48.100765     -130.624283      -40.360859
 H         -46.777081     -131.787796      -41.015869
 H         -48.283607     -132.770050      -39.576866
 H         -49.686108     -132.545609      -40.418850
