20
 generated by VMD
 C         -59.108318     -168.326538      -55.151855
 N         -58.068520     -168.872940      -54.868176
 H         -62.621407     -169.189255      -55.748291
 H         -60.031662     -167.794586      -55.406979
 C         -62.529449     -168.234512      -56.299427
 C         -62.709774     -168.161865      -57.843773
 C         -62.804226     -166.926575      -55.650387
 C         -64.118217     -167.616058      -58.248642
 C         -64.195770     -166.271362      -55.994629
 C         -64.345596     -166.219360      -57.591057
 H         -62.555851     -169.089935      -58.223190
 H         -61.885727     -167.455566      -58.227066
 H         -62.880737     -166.926636      -54.458435
 H         -61.976791     -166.202988      -55.814804
 H         -64.739288     -168.347733      -57.807209
 H         -64.071632     -167.637070      -59.329933
 H         -64.246109     -165.237915      -55.772736
 H         -64.967896     -166.894012      -55.596321
 H         -65.315247     -165.665009      -57.793919
 H         -63.420052     -165.595688      -57.904549
