20
 generated by VMD
 C         -22.778299      -55.485779      -16.488150
 N         -23.334539      -54.686024      -15.974937
 H         -19.022778      -55.308872      -15.349848
 H         -22.126211      -56.021088      -17.309856
 C         -19.329294      -56.247715      -14.890553
 C         -20.409552      -56.289574      -13.880798
 C         -18.413561      -57.511524      -15.145047
 C         -20.846243      -57.690384      -13.228491
 C         -19.027134      -58.828968      -14.756902
 C         -19.675385      -58.801659      -13.324217
 H         -21.362213      -55.895397      -14.264808
 H         -20.145016      -55.538193      -13.137288
 H         -18.159449      -57.342220      -16.233089
 H         -17.460299      -57.339088      -14.673955
 H         -21.709892      -58.058773      -13.760380
 H         -21.177700      -57.572300      -12.184400
 H         -18.346771      -59.667652      -14.788341
 H         -19.830179      -59.001587      -15.489197
 H         -20.036385      -59.835495      -13.142724
 H         -18.987835      -58.593731      -12.474097
