20
 generated by VMD
 C         -45.095551     -122.806503      -35.395164
 N         -45.477837     -123.887253      -35.106876
 H         -45.165211     -122.724907      -39.028149
 H         -44.549477     -121.865746      -35.708817
 C         -44.875610     -121.768265      -39.339466
 C         -43.497063     -121.416985      -39.568630
 C         -45.949093     -120.697845      -39.486954
 C         -43.306606     -120.572990      -40.925026
 C         -45.800926     -120.021805      -40.811440
 C         -44.332054     -119.499001      -41.074474
 H         -43.029205     -122.373009      -39.639252
 H         -43.096554     -120.736755      -38.794449
 H         -46.862644     -121.230919      -39.452473
 H         -45.956451     -120.027779      -38.571636
 H         -43.433514     -121.264153      -41.789528
 H         -42.306194     -120.033844      -40.923302
 H         -46.450466     -119.131706      -41.020187
 H         -46.104813     -120.731613      -41.707802
 H         -44.253998     -119.185844      -42.125793
 H         -44.095394     -118.629074      -40.535694
