20
 generated by VMD
 C         -49.681664     -133.184738      -46.839397
 N         -48.889782     -132.382416      -47.115887
 H         -48.096672     -134.210602      -44.388500
 H         -50.508305     -133.844193      -46.743729
 C         -48.992283     -134.703079      -43.982239
 C         -49.313480     -136.165283      -44.126995
 C         -49.921844     -133.826096      -43.178421
 C         -50.017563     -136.767761      -42.882935
 C         -50.586784     -134.577087      -42.054714
 C         -51.221905     -135.850403      -42.516487
 H         -48.422321     -136.684906      -44.385216
 H         -49.968960     -136.255157      -45.011189
 H         -49.350311     -133.010880      -42.703560
 H         -50.630203     -133.363403      -43.962955
 H         -49.492699     -136.930786      -41.940830
 H         -50.504093     -137.667633      -43.156307
 H         -51.347839     -133.958557      -41.549580
 H         -49.878971     -134.775330      -41.241676
 H         -51.677513     -136.308884      -41.602032
 H         -51.997292     -135.630493      -43.339066
