20
 generated by VMD
 C         -49.963142     -131.482147      -46.660385
 N         -50.232861     -131.778900      -47.717548
 H         -48.213131     -131.838837      -43.829391
 H         -49.602707     -131.497543      -45.678139
 C         -49.043224     -132.227570      -43.173862
 C         -49.680069     -133.587128      -43.306400
 C         -48.720882     -131.719254      -41.762646
 C         -48.904655     -134.627060      -42.550625
 C         -47.969772     -132.868179      -40.936165
 C         -48.715069     -134.155396      -41.055267
 H         -49.756172     -133.888824      -44.312649
 H         -50.749901     -133.747818      -42.889412
 H         -48.093342     -130.837265      -41.815437
 H         -49.658455     -131.481293      -41.109123
 H         -47.941540     -134.839935      -42.921970
 H         -49.359505     -135.577515      -42.421062
 H         -47.781551     -132.514450      -39.913376
 H         -47.061806     -132.869568      -41.425343
 H         -48.235317     -134.970428      -40.464397
 H         -49.678265     -133.956253      -40.689316
