20
 generated by VMD
 C         -60.319157     -172.121902      -55.243748
 N         -59.889492     -173.081573      -54.854240
 H         -62.824608     -170.439529      -56.551746
 H         -60.580364     -171.196838      -55.763496
 C         -63.307957     -169.749084      -57.182648
 C         -62.732063     -168.323273      -57.361328
 C         -64.795624     -169.685196      -57.121250
 C         -63.256290     -167.806580      -58.769802
 C         -65.299042     -169.193954      -58.474979
 C         -64.728203     -167.879807      -59.019733
 H         -61.724857     -168.153595      -57.201378
 H         -63.257183     -167.567383      -56.646267
 H         -65.304886     -170.584320      -56.819889
 H         -65.216637     -169.000000      -56.355694
 H         -62.688301     -168.469193      -59.581745
 H         -63.038445     -166.753967      -58.967804
 H         -66.364189     -169.049301      -58.512249
 H         -65.221268     -169.949081      -59.239582
 H         -64.927162     -167.727295      -60.095570
 H         -65.387909     -167.194626      -58.537521
