20
 generated by VMD
 C         -11.077894      -38.740391       -6.894175
 N         -11.967375      -38.209557       -7.253090
 H         -12.688512      -41.611523       -8.986032
 H         -13.558393      -40.406582       -8.186501
 C         -13.681300      -41.207756       -8.842651
 C         -14.477123      -42.232059       -8.011856
 C         -14.404464      -40.912735      -10.161894
 C         -15.897008      -41.857510       -7.890728
 C         -15.729979      -40.350338       -9.852414
 C         -16.610474      -41.344933       -9.158600
 H         -14.026508      -42.218948       -7.044187
 H         -14.349886      -43.181053       -8.516548
 H         -13.787846      -40.197823      -10.660625
 H         -14.473281      -41.874157      -10.720413
 H         -16.000143      -41.148117       -7.086952
 H         -16.447176      -42.759811       -7.602818
 H         -16.305830      -39.989468      -10.713358
 H         -15.654301      -39.418865       -9.246088
 H         -17.524214      -40.819084       -8.866477
 H         -16.967133      -42.139057       -9.857986
