20
 generated by VMD
 C         -13.529429      -29.517342       -7.345527
 N         -13.514060      -29.123474       -8.388936
 H         -11.482226      -30.305330       -4.633523
 H          -9.929390      -30.301538       -3.654509
 C         -10.647069      -30.854958       -4.316729
 C          -9.865083      -31.398384       -5.486441
 C         -11.252884      -32.054512       -3.583634
 C          -8.729128      -32.352577       -4.961444
 C         -10.177289      -32.942745       -2.902661
 C          -9.352944      -33.502594       -4.011198
 H          -9.452258      -30.508919       -6.090409
 H         -10.543506      -31.902916       -6.180018
 H         -11.884266      -31.705151       -2.779511
 H         -11.848485      -32.695488       -4.256724
 H          -8.102432      -31.717880       -4.382538
 H          -8.159863      -32.820961       -5.756071
 H         -10.737808      -33.616959       -2.259962
 H          -9.546251      -32.302681       -2.242768
 H          -8.520105      -33.959980       -3.545013
 H          -9.948730      -34.084103       -4.701296
