20
 generated by VMD
 C         -59.937748     -156.763824      -56.045719
 N         -60.997910     -156.245453      -56.300785
 H         -59.766590     -157.568848      -53.397327
 H         -58.964214     -157.323502      -56.000404
 C         -58.823231     -157.936523      -52.927361
 C         -57.751282     -156.972672      -52.484138
 C         -58.647137     -159.371506      -52.443741
 C         -57.304173     -157.206879      -50.964809
 C         -58.389851     -159.517197      -50.905144
 C         -57.131157     -158.662155      -50.592541
 H         -57.885651     -155.916275      -52.619278
 H         -56.825077     -157.245697      -53.152611
 H         -59.548088     -159.928375      -52.834167
 H         -57.805519     -159.768600      -52.963127
 H         -58.111843     -156.695618      -50.444519
 H         -56.352554     -156.807388      -50.914223
 H         -58.185402     -160.588516      -50.634052
 H         -59.360580     -159.077469      -50.347965
 H         -56.979008     -158.697784      -49.458862
 H         -56.302387     -159.101044      -51.044781
