20
 generated by VMD
 C         -40.408905     -100.222679      -30.269783
 N         -41.459984     -100.542961      -29.843231
 H         -37.085052     -101.475494      -30.811180
 H         -39.487503      -99.811584      -30.510107
 C         -36.509155     -100.604721      -30.788136
 C         -36.134995     -100.170830      -32.315670
 C         -35.383938     -100.366196      -29.838530
 C         -35.376640      -98.884598      -32.373756
 C         -34.476601      -99.257545      -30.120863
 C         -34.048222      -99.009399      -31.594568
 H         -37.100849     -100.170517      -32.764416
 H         -35.530502     -100.982201      -32.743767
 H         -35.731430     -100.242203      -28.842833
 H         -34.805801     -101.330315      -29.893688
 H         -35.907101      -97.918640      -31.971060
 H         -35.160305      -98.639664      -33.410149
 H         -33.596039      -99.387115      -29.512835
 H         -35.027985      -98.259445      -29.910471
 H         -33.597790      -97.975639      -31.783157
 H         -33.510658      -99.854385      -31.968176
