20
 generated by VMD
 C         -20.276632      -57.267467      -16.827761
 N         -19.195896      -57.188961      -17.210974
 H         -22.511023      -59.497051      -17.243048
 H         -21.090044      -57.435780      -16.258984
 C         -22.460880      -60.379238      -16.747389
 C         -23.717230      -60.976219      -16.192385
 C         -21.160797      -60.910828      -16.326727
 C         -23.690794      -61.770130      -14.908744
 C         -21.156036      -62.247284      -15.492146
 C         -22.298418      -62.286003      -14.473391
 H         -24.058418      -61.692188      -16.953087
 H         -24.575712      -60.231480      -16.128325
 H         -20.516947      -61.016666      -17.192858
 H         -20.744061      -60.108280      -15.689353
 H         -24.390203      -62.600315      -14.988740
 H         -24.025095      -61.180153      -14.100545
 H         -20.174950      -62.519218      -15.164948
 H         -21.506794      -63.043262      -16.202593
 H         -22.477535      -63.302181      -14.221548
 H         -22.053307      -61.843979      -13.509329
