20
 generated by VMD
 C         -61.590572     -172.351181      -54.948017
 N         -60.615101     -173.006882      -55.180256
 H         -62.163864     -170.669388      -58.473232
 H         -62.452190     -171.693832      -54.686661
 C         -62.849438     -170.123917      -57.836449
 C         -62.561832     -168.599258      -57.621868
 C         -64.202942     -170.494995      -57.555134
 C         -63.466984     -167.869492      -58.702522
 C         -65.110153     -169.686951      -58.615490
 C         -64.926079     -168.190063      -58.554962
 H         -61.411400     -168.369888      -57.782162
 H         -62.801865     -168.261063      -56.653851
 H         -64.466499     -171.596542      -57.675182
 H         -64.599472     -170.236801      -56.575920
 H         -62.999706     -168.089966      -59.628704
 H         -63.353905     -166.765182      -58.465256
 H         -66.123482     -169.835037      -58.330803
 H         -64.884354     -169.976974      -59.576843
 H         -65.593796     -167.652313      -59.377541
 H         -65.361206     -167.834229      -57.601372
