20
 generated by VMD
 C         -58.572643     -161.890930      -56.523643
 N         -57.774704     -161.188004      -56.121693
 H         -59.481621     -164.895721      -55.363346
 H         -59.302650     -162.533630      -56.937027
 C         -60.282761     -164.326416      -54.849106
 C         -59.968006     -163.576279      -53.621067
 C         -61.661385     -164.351425      -55.290653
 C         -60.918018     -162.441772      -53.232265
 C         -62.544857     -163.190567      -54.939075
 C         -62.376862     -162.825745      -53.489384
 H         -58.910805     -163.321274      -53.596554
 H         -59.911396     -164.201630      -52.661930
 H         -61.678131     -164.455978      -56.320534
 H         -62.254986     -165.238174      -54.914673
 H         -60.499176     -161.529205      -53.791241
 H         -60.676102     -162.343521      -52.195530
 H         -63.575588     -163.483276      -55.059715
 H         -62.452995     -162.323639      -55.601109
 H         -63.042652     -161.969833      -53.192226
 H         -62.626068     -163.712509      -52.877533
