20
 generated by VMD
 C         -32.313625      -93.554314      -25.345570
 N         -33.047054      -94.402237      -25.555458
 H         -33.676605      -94.886597      -28.596508
 H         -31.750292      -92.561722      -25.153320
 C         -34.298058      -94.158775      -29.170618
 C         -35.605270      -93.531578      -28.530523
 C         -33.659805      -93.430969      -30.291721
 C         -35.397694      -92.061890      -28.231112
 C         -33.515396      -91.909325      -29.897404
 C         -34.880013      -91.399551      -29.444017
 H         -35.780537      -94.129547      -27.561234
 H         -36.307735      -93.950371      -29.260298
 H         -32.632114      -93.885757      -30.294033
 H         -34.159824      -93.546730      -31.252039
 H         -34.645504      -92.091156      -27.469418
 H         -36.396801      -91.590439      -27.923008
 H         -33.197643      -91.376648      -30.788315
 H         -32.797134      -91.568832      -29.153442
 H         -34.741669      -90.323792      -29.045738
 H         -35.722260      -91.471458      -30.170776
