20
 generated by VMD
 C         -29.477348      -89.191673      -26.054539
 N         -29.513071      -88.742752      -25.015812
 H         -31.682812      -90.762093      -27.466675
 H         -29.302614      -89.750839      -27.031019
 C         -32.492794      -90.076912      -27.403620
 C         -33.203056      -90.126076      -26.118637
 C         -33.028595      -89.230011      -28.618822
 C         -34.084541      -88.925392      -25.933376
 C         -33.981998      -88.087364      -28.307556
 C         -34.926998      -88.545082      -27.205505
 H         -32.403656      -90.012314      -25.392124
 H         -33.667061      -91.083923      -26.059355
 H         -32.058773      -88.809746      -29.046087
 H         -33.407120      -90.000084      -29.343681
 H         -33.512119      -87.985809      -25.601194
 H         -34.816711      -89.183800      -25.071787
 H         -34.600681      -87.766953      -29.119534
 H         -33.309948      -87.256523      -27.974609
 H         -35.413605      -87.660072      -26.935774
 H         -35.668926      -89.264130      -27.496323
