20
 generated by VMD
 C          -1.521091      -11.293129        1.588389
 N          -1.099303      -12.126121        0.925189
 H          -3.692585      -13.192134        0.355978
 H          -5.298287      -12.862556        0.772966
 C          -4.536200      -13.626401        0.826925
 C          -4.216132      -13.786860        2.305058
 C          -5.004879      -14.911775        0.160403
 C          -5.278600      -14.562472        3.070596
 C          -6.179187      -15.584513        0.932687
 C          -5.607403      -15.894002        2.330733
 H          -4.047129      -12.777371        2.824459
 H          -3.339574      -14.466773        2.351686
 H          -5.283451      -14.761949       -0.872212
 H          -4.174336      -15.628463        0.206114
 H          -6.191463      -13.972048        3.306415
 H          -4.780094      -14.824541        4.039156
 H          -6.449932      -16.497787        0.358632
 H          -6.994963      -14.867252        0.961270
 H          -6.450704      -16.321827        2.876949
 H          -4.792857      -16.641193        2.307303
