20
 generated by VMD
 C         -70.122307     -183.939926      -66.025497
 N         -69.040138     -183.705658      -66.295372
 H         -68.903412     -184.556610      -63.534557
 H         -71.108002     -184.222412      -65.704613
 C         -68.663361     -184.055283      -62.608250
 C         -68.935699     -184.676636      -61.263832
 C         -68.056641     -182.630020      -62.610268
 C         -67.766144     -184.576172      -60.287659
 C         -66.998932     -182.527542      -61.449390
 C         -67.323357     -183.118301      -60.123127
 H         -69.233536     -185.731430      -61.289288
 H         -69.792107     -184.157516      -60.755253
 H         -67.587364     -182.451248      -63.557255
 H         -68.789658     -181.828445      -62.623787
 H         -66.866302     -185.150818      -60.605831
 H         -67.904083     -184.850235      -59.257980
 H         -66.816849     -181.460907      -61.369331
 H         -66.031914     -182.923843      -61.810829
 H         -66.435677     -183.072769      -59.417065
 H         -68.188118     -182.647125      -59.736034
