20
 generated by VMD
 C         -73.961502     -201.056870      -65.431091
 N         -72.804321     -201.090881      -65.378708
 H         -74.060638     -197.829834      -66.444221
 H         -75.040176     -200.801529      -65.307175
 C         -74.121323     -197.554321      -67.468712
 C         -74.582886     -196.130417      -67.625885
 C         -73.561417     -198.219406      -68.714401
 C         -73.486832     -195.385452      -68.430962
 C         -73.720406     -197.416794      -69.958206
 C         -73.376083     -195.946426      -69.959946
 H         -74.669846     -195.582413      -66.655106
 H         -75.552727     -196.044571      -68.200905
 H         -72.522430     -198.124146      -68.462784
 H         -73.999535     -199.225937      -68.913414
 H         -72.525726     -195.525818      -67.902679
 H         -73.677658     -194.310333      -68.465721
 H         -74.781822     -197.510025      -70.151222
 H         -73.294540     -197.940750      -70.898911
 H         -72.420792     -195.724274      -70.343826
 H         -74.167976     -195.316681      -70.524513
