20
 generated by VMD
 C         -68.177292     -185.294739      -67.758911
 N         -67.609238     -185.388412      -66.734596
 H         -69.833740     -186.825211      -64.914459
 H         -68.648392     -185.206650      -68.696732
 C         -69.749237     -186.605042      -63.829636
 C         -70.392784     -185.408646      -63.155315
 C         -69.552605     -187.807343      -62.890553
 C         -70.234840     -185.296570      -61.599754
 C         -68.935844     -187.459198      -61.603271
 C         -69.859459     -186.559021      -60.858829
 H         -71.454453     -185.495285      -63.367310
 H         -70.198891     -184.497635      -63.756706
 H         -70.413177     -188.470917      -62.876247
 H         -68.893356     -188.521484      -63.368618
 H         -71.070107     -184.736465      -61.153049
 H         -69.396294     -184.545486      -61.399036
 H         -68.070328     -186.906052      -61.724018
 H         -68.610039     -188.354446      -61.112324
 H         -70.676437     -187.175522      -60.604919
 H         -69.411942     -186.174606      -59.970371
