20
 generated by VMD
 C         -21.574568      -65.833160      -16.992706
 N         -20.984316      -66.380852      -16.163527
 H         -24.133303      -63.957321      -18.185476
 H         -22.055035      -65.104988      -17.484398
 C         -24.489523      -64.913925      -18.378805
 C         -24.423548      -65.375114      -19.847424
 C         -25.315264      -65.659912      -17.509172
 C         -24.387587      -66.913277      -19.999510
 C         -25.219387      -67.248711      -17.600382
 C         -25.222925      -67.707870      -19.057430
 H         -23.560778      -64.828392      -20.306332
 H         -25.221348      -64.974785      -20.371161
 H         -25.135847      -65.335831      -16.493019
 H         -26.372747      -65.383080      -17.752800
 H         -23.337629      -67.331108      -19.956524
 H         -24.646002      -66.983780      -21.096563
 H         -26.044571      -67.733925      -17.071596
 H         -24.318895      -67.439728      -16.960867
 H         -24.840124      -68.724480      -19.156441
 H         -26.222610      -67.838089      -19.448103
