20
 generated by VMD
 C         -40.169186     -107.207466      -37.819981
 N         -39.201954     -106.600685      -37.849598
 H         -38.950161     -108.175186      -34.607529
 H         -41.120983     -107.669823      -37.550873
 C         -39.517139     -108.956825      -34.081532
 C         -38.815960     -110.176125      -33.384472
 C         -41.081394     -108.928658      -34.252132
 C         -39.698910     -110.843399      -32.360710
 C         -41.784500     -109.609169      -33.077446
 C         -41.185856     -110.905800      -32.782074
 H         -37.803936     -109.970535      -32.814758
 H         -38.507812     -110.914421      -34.213123
 H         -41.404396     -107.923523      -34.275383
 H         -41.302692     -109.430313      -35.195560
 H         -39.776291     -110.301712      -31.507965
 H         -39.202927     -111.812180      -32.205471
 H         -42.910103     -109.780708      -33.262379
 H         -41.872623     -108.833496      -32.278503
 H         -41.836147     -111.271324      -31.846113
 H         -41.377346     -111.574928      -33.602840
