20
 generated by VMD
 C         -58.891960     -152.418625      -50.683369
 N         -59.779800     -152.998703      -50.214989
 H         -57.191227     -151.241409      -48.905403
 H         -58.080940     -151.829758      -51.014580
 C         -56.275639     -151.040710      -49.498653
 C         -55.374294     -152.126328      -49.957054
 C         -55.574993     -149.768021      -49.343700
 C         -54.510792     -151.764679      -51.194817
 C         -54.836800     -149.325302      -50.575096
 C         -53.783413     -150.408798      -50.914478
 H         -56.049564     -153.016113      -50.257149
 H         -54.748547     -152.469772      -49.125397
 H         -56.239300     -148.949936      -49.091042
 H         -54.876759     -149.755325      -48.443489
 H         -55.198193     -151.631439      -52.020546
 H         -53.797691     -152.578659      -51.472649
 H         -54.262379     -148.546036      -50.191616
 H         -55.331970     -148.904587      -51.533421
 H         -53.236713     -150.216827      -51.791367
 H         -53.272213     -150.671036      -49.947937
