20
 generated by VMD
 C         -41.151806     -119.333458      -34.701405
 N         -40.250572     -119.216728      -35.451324
 H         -43.528908     -117.495987      -36.350609
 H         -42.085159     -119.163216      -34.054955
 C         -43.939445     -117.631226      -37.346539
 C         -42.951492     -117.759674      -38.507877
 C         -45.269234     -116.956589      -37.570499
 C         -43.696167     -118.509811      -39.592987
 C         -45.964340     -117.515488      -38.838131
 C         -45.008133     -117.681343      -39.980804
 H         -42.268719     -118.508759      -38.176125
 H         -42.571827     -116.834557      -38.972275
 H         -45.897739     -117.116394      -36.582302
 H         -45.072937     -115.902100      -37.645142
 H         -44.031830     -119.509300      -39.338314
 H         -43.192535     -118.592285      -40.614601
 H         -46.918953     -116.946533      -39.066139
 H         -46.339977     -118.584854      -38.617649
 H         -45.495766     -118.270531      -40.842426
 H         -44.780769     -116.756317      -40.417198
