20
 generated by VMD
 C         -60.623837     -153.304581      -52.215385
 N         -60.520954     -152.657959      -51.230705
 H         -57.404369     -153.874649      -50.203335
 H         -60.749233     -154.046921      -53.024872
 C         -56.534588     -153.230225      -50.298317
 C         -55.336605     -153.622574      -49.499443
 C         -56.654091     -152.005386      -51.065334
 C         -54.009121     -153.035217      -49.994663
 C         -55.324505     -151.489609      -51.662338
 C         -54.202839     -151.507370      -50.604626
 H         -55.122002     -154.631424      -49.407085
 H         -55.542736     -153.224442      -48.528919
 H         -57.426514     -152.144516      -51.877583
 H         -57.071430     -151.263351      -50.395966
 H         -53.551155     -153.698166      -50.736420
 H         -53.374771     -152.755295      -49.087635
 H         -55.252190     -150.505478      -52.214809
 H         -55.052189     -152.089890      -52.417522
 H         -53.200703     -151.421646      -51.202934
 H         -54.383617     -150.801117      -49.830963
