20
 generated by VMD
 C         -22.679462      -52.298668      -11.835416
 N         -22.574385      -52.640430      -10.678716
 H         -19.995800      -51.978935      -13.908698
 H         -22.964989      -52.059269      -12.938833
 C         -18.957111      -52.449680      -13.916089
 C         -17.964813      -51.807644      -14.780083
 C         -18.364956      -53.271175      -12.751262
 C         -16.523262      -52.325867      -14.597165
 C         -17.129301      -52.579926      -12.137254
 C         -16.073416      -52.070057      -13.116266
 H         -17.956087      -50.764076      -14.516321
 H         -18.365538      -51.910923      -15.802971
 H         -19.141680      -53.543133      -11.969678
 H         -17.991211      -54.221359      -13.203536
 H         -15.782778      -51.745415      -15.155674
 H         -16.332991      -53.367016      -14.844450
 H         -16.702902      -53.194710      -11.351657
 H         -17.479937      -51.692883      -11.639603
 H         -15.815025      -51.028072      -13.006416
 H         -15.159768      -52.576862      -12.871369
