20
 generated by VMD
 C         -40.510937     -106.099358      -37.108250
 N         -39.809948     -106.796844      -37.721291
 H         -38.643593     -107.801010      -34.017025
 H         -40.990685     -105.520683      -36.300529
 C         -39.111698     -108.748024      -34.068752
 C         -38.460049     -109.727402      -33.114151
 C         -40.546543     -108.838066      -34.516613
 C         -39.368225     -109.963371      -31.955549
 C         -41.488815     -109.187302      -33.351147
 C         -40.873173     -110.371773      -32.478882
 H         -37.565716     -109.192528      -32.671997
 H         -38.278427     -110.711876      -33.566273
 H         -40.850700     -107.883858      -34.945534
 H         -40.583546     -109.554993      -35.375740
 H         -39.529266     -109.161987      -31.222445
 H         -38.880310     -110.865440      -31.402378
 H         -42.461285     -109.421654      -33.873573
 H         -41.624786     -108.308899      -32.722710
 H         -41.501278     -110.571548      -31.516991
 H         -40.874325     -111.270935      -33.031281
