20
 generated by VMD
 C         -12.868755      -43.301975       -6.892987
 N         -12.788081      -42.196316       -6.859250
 H         -14.532124      -43.869839       -8.470545
 H         -14.536792      -42.460938       -9.445406
 C         -15.099776      -43.425011       -9.313611
 C         -16.574272      -43.143414       -8.969574
 C         -14.983850      -44.449867      -10.466398
 C         -17.282644      -42.556606      -10.178791
 C         -15.506913      -43.904331      -11.758237
 C         -16.910725      -43.396679      -11.476974
 H         -16.647701      -42.503357       -8.135817
 H         -17.045507      -44.105408       -8.797055
 H         -13.957664      -44.739880      -10.585776
 H         -15.533324      -45.341721      -10.149351
 H         -16.921865      -41.535862      -10.332108
 H         -18.351370      -42.511742       -9.973825
 H         -15.493202      -44.562138      -12.602741
 H         -14.848403      -43.045135      -12.061899
 H         -17.171684      -42.888767      -12.407491
 H         -17.568951      -44.333229      -11.458565
