20
 generated by VMD
 C         -39.883286     -116.820671      -34.673615
 N         -39.423615     -115.743050      -34.497818
 H         -41.458733     -116.548302      -37.942200
 H         -40.572269     -117.595764      -34.813873
 C         -42.492977     -116.050713      -37.850647
 C         -43.183437     -115.764229      -39.126205
 C         -43.210644     -115.889381      -36.568871
 C         -44.409893     -116.590935      -39.141243
 C         -44.620228     -116.568565      -36.686466
 C         -45.399639     -116.366844      -37.967796
 H         -42.557533     -115.827263      -40.017555
 H         -43.502735     -114.703171      -39.115868
 H         -42.620869     -116.303703      -35.758461
 H         -43.271103     -114.850372      -36.281944
 H         -44.076485     -117.638794      -39.252495
 H         -44.994072     -116.330765      -40.075310
 H         -45.095661     -116.211914      -35.806664
 H         -44.470795     -117.642113      -36.535522
 H         -46.198586     -117.262833      -38.187366
 H         -45.904327     -115.292442      -38.191502
