20
 generated by VMD
 C         -58.490364     -160.052429      -56.993404
 N         -58.560070     -159.904800      -58.207432
 H         -58.743214     -162.818573      -54.970947
 H         -58.466484     -160.131165      -55.892822
 C         -59.545456     -162.605103      -54.251553
 C         -59.245846     -162.828079      -52.748390
 C         -60.957043     -162.843674      -54.749237
 C         -60.282482     -161.995697      -51.760799
 C         -61.947002     -162.073837      -53.806583
 C         -61.699280     -162.362579      -52.281849
 H         -58.194191     -162.499268      -52.594482
 H         -59.470367     -163.861298      -52.693661
 H         -61.056873     -162.676727      -55.795395
 H         -61.190899     -163.965927      -54.665630
 H         -60.161312     -160.961517      -51.638081
 H         -60.059914     -162.408752      -50.796677
 H         -62.932514     -162.409714      -54.171356
 H         -61.895432     -160.994034      -53.708878
 H         -62.412472     -161.786972      -51.699047
 H         -61.812515     -163.396072      -52.095692
