20
 generated by VMD
 C         -60.173603     -157.387024      -55.988567
 N         -59.898483     -157.932846      -56.983685
 H         -60.022594     -157.344818      -52.589180
 H         -60.342377     -156.994232      -54.968906
 C         -59.237316     -158.055740      -52.816666
 C         -57.943741     -157.631424      -52.200161
 C         -59.502705     -159.545380      -53.096275
 C         -57.632725     -158.546387      -51.006378
 C         -59.274853     -160.453705      -51.897217
 C         -57.845123     -160.061569      -51.328529
 H         -57.839226     -156.509811      -51.950447
 H         -57.226334     -157.738327      -52.987980
 H         -60.572353     -159.554672      -53.325596
 H         -58.879906     -159.802750      -54.041561
 H         -58.342117     -158.353302      -50.245144
 H         -56.635059     -158.152344      -50.662498
 H         -59.407269     -161.496765      -52.251793
 H         -60.003464     -160.307770      -51.091251
 H         -57.637825     -160.579636      -50.436565
 H         -57.021019     -160.484802      -52.026234
