20
 generated by VMD
 C         -68.489799     -193.597153      -64.862045
 N         -68.375526     -194.623169      -65.449440
 H         -70.718445     -193.211456      -67.212234
 H         -68.249397     -192.666779      -64.289803
 C         -71.685822     -192.809052      -66.952507
 C         -71.722420     -191.358383      -66.358246
 C         -72.970184     -193.459320      -67.141777
 C         -73.170959     -190.884140      -66.094650
 C         -73.746941     -193.401260      -65.765579
 C         -73.927269     -191.956696      -65.263382
 H         -71.079781     -190.656784      -67.009956
 H         -71.053970     -191.539459      -65.479401
 H         -73.555954     -193.076172      -68.021652
 H         -72.817902     -194.561462      -67.521942
 H         -73.671074     -190.701523      -67.080009
 H         -73.173225     -189.856491      -65.710709
 H         -73.351303     -193.972488      -64.894897
 H         -74.679527     -193.879456      -65.912788
 H         -74.953644     -191.812744      -65.257210
 H         -73.705170     -191.786270      -64.145180
