20
 generated by VMD
 C         -11.463904      -33.563507       -9.082286
 N         -10.476419      -33.169662       -8.795695
 H         -12.290387      -34.931736       -7.305468
 H         -12.725389      -35.190277       -5.700052
 C         -12.678608      -35.709244       -6.668511
 C         -11.646627      -36.857967       -6.447861
 C         -14.013469      -36.272747       -7.130536
 C         -12.126964      -37.808784       -5.341557
 C         -14.539800      -37.071983       -5.957187
 C         -13.612309      -38.276279       -5.613000
 H         -10.724607      -36.394760       -6.039934
 H         -11.395151      -37.353947       -7.401322
 H         -14.621838      -35.401993       -7.250727
 H         -13.906144      -36.902660       -8.074857
 H         -12.093080      -37.368896       -4.335172
 H         -11.560939      -38.785492       -5.230472
 H         -15.450347      -37.473923       -6.271505
 H         -14.678156      -36.415680       -5.046674
 H         -13.992115      -38.735699       -4.697289
 H         -13.543615      -38.996655       -6.410737
