20
 generated by VMD
 C         -40.063625     -100.864029      -31.824333
 N         -40.957581     -100.512703      -31.219063
 H         -37.598778     -103.695885      -32.339184
 H         -39.071136     -101.088852      -32.335484
 C         -37.101944     -102.845863      -31.850578
 C         -35.998768     -102.337959      -32.753571
 C         -37.077568     -102.399811      -30.439402
 C         -35.360950     -100.961014      -32.469948
 C         -36.614166     -100.999771      -30.373890
 C         -35.294579     -100.606186      -31.051313
 H         -36.313255     -102.360840      -33.820011
 H         -35.247604     -103.070312      -32.554985
 H         -38.057007     -102.419624      -30.003147
 H         -36.473583     -103.067619      -29.733952
 H         -35.902981     -100.182053      -33.025616
 H         -34.356476     -101.007866      -32.883514
 H         -36.451519     -100.705437      -29.266384
 H         -37.407047     -100.353340      -30.783258
 H         -35.191418      -99.525017      -30.988283
 H         -34.436195     -101.017540      -30.589092
