20
 generated by VMD
 C         -70.299812     -182.729919      -65.788109
 N         -71.053619     -183.627975      -65.607315
 H         -67.785912     -181.946838      -63.032333
 H         -69.579300     -181.894470      -66.003014
 C         -67.290009     -181.968460      -62.087498
 C         -67.626221     -183.091537      -61.088326
 C         -67.053558     -180.549637      -61.590984
 C         -66.668114     -182.938843      -59.959419
 C         -65.983803     -180.624130      -60.482197
 C         -66.406967     -181.585144      -59.468838
 H         -67.513733     -184.129623      -61.617123
 H         -68.662842     -182.957901      -60.746353
 H         -66.661652     -179.825546      -62.355591
 H         -67.949684     -180.112518      -61.059921
 H         -65.692673     -183.397171      -60.066963
 H         -66.978157     -183.573532      -59.206810
 H         -65.934631     -179.612793      -60.065659
 H         -64.971138     -180.868591      -60.881054
 H         -65.636627     -181.639496      -58.707760
 H         -67.271851     -181.087494      -59.095425
