20
 generated by VMD
 C         -56.335629     -149.655548      -46.253300
 N         -56.540024     -150.563797      -45.593475
 H         -53.553001     -148.061630      -47.907806
 H         -56.076385     -148.769791      -46.796520
 C         -53.837227     -147.427658      -48.687878
 C         -53.022316     -147.624237      -49.899055
 C         -54.622292     -146.167542      -48.555004
 C         -53.767452     -147.341476      -51.140602
 C         -55.288380     -145.885040      -49.872627
 C         -54.318913     -145.989822      -51.035748
 H         -52.768661     -148.621704      -49.827942
 H         -51.999901     -147.030014      -49.814686
 H         -55.409229     -146.226883      -47.884502
 H         -53.894833     -145.373001      -48.373802
 H         -54.567204     -148.119476      -51.285690
 H         -53.083649     -147.412598      -51.987503
 H         -55.717453     -144.799164      -49.957340
 H         -56.218880     -146.470352      -49.991119
 H         -54.967480     -145.932495      -51.924782
 H         -53.610332     -145.135437      -51.080376
