20
 generated by VMD
 C         -29.812962      -79.586510      -26.456285
 N         -30.423889      -78.812057      -25.826710
 H         -28.539127      -83.166008      -25.606203
 H         -29.048170      -80.365440      -26.738935
 C         -29.039389      -83.019798      -24.691818
 C         -28.611923      -82.061256      -23.691109
 C         -29.926792      -84.086510      -24.297035
 C         -29.818768      -81.521736      -22.852406
 C         -31.123497      -83.674164      -23.327793
 C         -30.528105      -82.756111      -22.136662
 H         -28.262936      -81.249977      -24.235275
 H         -27.768238      -82.465813      -23.153681
 H         -30.372377      -84.509422      -25.272888
 H         -29.302517      -84.868324      -23.792824
 H         -30.590328      -81.043579      -23.576496
 H         -29.587982      -80.905128      -22.080990
 H         -31.643303      -84.626022      -23.050617
 H         -31.784454      -83.143967      -24.074017
 H         -31.335747      -82.336174      -21.536148
 H         -29.779812      -83.416061      -21.518131
