20
 generated by VMD
 C          -1.449873      -11.604693        1.578312
 N          -1.124415      -12.293260        0.761693
 H          -3.771853      -13.143015        0.494685
 H          -5.471190      -12.829448        0.776885
 C          -4.686635      -13.611961        0.916719
 C          -4.341079      -13.891327        2.391396
 C          -4.866957      -14.930410        0.125625
 C          -5.542544      -14.647241        3.068468
 C          -5.936810      -15.748552        0.763448
 C          -5.793425      -15.929517        2.246318
 H          -4.234426      -13.020627        2.946549
 H          -3.406960      -14.452583        2.559153
 H          -5.115076      -14.755072       -0.962009
 H          -3.903509      -15.506714        0.084239
 H          -6.465046      -14.050728        2.928682
 H          -5.506912      -14.827052        4.124492
 H          -5.940136      -16.758312        0.344543
 H          -6.930600      -15.299589        0.531524
 H          -6.629860      -16.533272        2.646643
 H          -4.901772      -16.542702        2.378915
