20
 generated by VMD
 C         -35.836014      -97.874969      -26.754610
 N         -36.256638      -97.895683      -25.690742
 H         -36.256584      -95.164345      -28.186352
 H         -35.329197      -97.768013      -27.771351
 C         -35.435101      -95.160599      -28.917816
 C         -35.693676      -96.035263      -30.141186
 C         -34.119678      -94.362457      -29.017199
 C         -35.443924      -95.349358      -31.553297
 C         -33.827175      -93.715599      -30.398226
 C         -34.083706      -94.640053      -31.596935
 H         -36.745232      -96.384155      -30.175310
 H         -35.072094      -97.014931      -30.039154
 H         -34.117039      -93.586449      -28.251240
 H         -33.323040      -95.108925      -28.747402
 H         -36.316788      -94.767601      -31.784517
 H         -35.443512      -96.209129      -32.308495
 H         -32.820232      -93.435905      -30.431595
 H         -34.509926      -92.846306      -30.613407
 H         -34.023384      -94.132545      -32.515423
 H         -33.290314      -95.461983      -31.747580
