20
 generated by VMD
 C         -45.508953     -123.402664      -35.446526
 N         -46.023033     -124.433914      -35.332535
 H         -45.054546     -122.722351      -38.746578
 H         -44.813923     -122.509903      -35.371311
 C         -44.823345     -121.679459      -39.171501
 C         -43.358459     -121.331924      -39.625668
 C         -45.817631     -120.621071      -39.472275
 C         -43.377888     -121.051605      -41.099625
 C         -45.814259     -120.390297      -40.971073
 C         -44.467934     -119.997742      -41.473537
 H         -42.827545     -122.237366      -39.407665
 H         -42.991798     -120.392174      -39.084023
 H         -46.832920     -120.944244      -39.110641
 H         -45.575573     -119.598824      -38.919640
 H         -43.540073     -122.000069      -41.612854
 H         -42.478416     -120.459038      -41.316967
 H         -46.478233     -119.731270      -41.281822
 H         -46.225655     -121.290649      -41.359692
 H         -44.440964     -119.714203      -42.588703
 H         -44.263504     -119.026268      -41.005661
