20
 generated by VMD
 C         -49.451210     -127.628181      -39.007675
 N         -49.972015     -126.801094      -38.370083
 H         -47.173943     -125.412224      -40.273380
 H         -48.966496     -128.436111      -39.579216
 C         -46.184704     -124.977455      -40.610756
 C         -44.824188     -125.441986      -40.280518
 C         -46.331528     -123.490112      -40.814301
 C         -43.596432     -124.725708      -40.928680
 C         -45.134163     -122.739258      -41.526535
 C         -43.824772     -123.248138      -41.129436
 H         -44.657650     -126.491386      -40.399746
 H         -44.740829     -125.314575      -39.276222
 H         -47.146610     -123.131416      -41.412807
 H         -46.486755     -122.986710      -39.733776
 H         -43.506409     -125.198608      -41.899406
 H         -42.657131     -124.889450      -40.391506
 H         -45.137100     -121.616943      -41.072079
 H         -45.086178     -122.655182      -42.661919
 H         -43.049225     -122.895340      -41.863548
 H         -43.534576     -122.817863      -40.167629
