20
 generated by VMD
 C         -50.934490     -127.689598      -40.965187
 N         -51.462456     -128.451660      -41.692169
 H         -47.648720     -127.651932      -40.713032
 H         -50.193295     -127.004059      -40.591713
 C         -46.622696     -127.154076      -40.791546
 C         -45.457611     -127.581230      -40.144283
 C         -46.760254     -125.743584      -41.268421
 C         -44.109604     -127.016296      -40.725086
 C         -45.529705     -125.155678      -41.877769
 C         -44.245396     -125.471039      -41.044827
 H         -45.341805     -128.611938      -40.296986
 H         -45.385735     -127.317558      -39.061188
 H         -47.432217     -125.637306      -42.064743
 H         -47.151611     -125.173538      -40.475807
 H         -44.016106     -127.518478      -41.670021
 H         -43.356075     -127.299164      -39.987705
 H         -45.566853     -124.095032      -42.027527
 H         -45.246712     -125.542839      -42.796028
 H         -43.309547     -125.093155      -41.577057
 H         -44.239498     -124.950943      -40.062912
