20
 generated by VMD
 C         -27.597752      -81.384109      -26.995829
 N         -28.359503      -81.941650      -27.646688
 H         -30.317539      -83.631645      -25.890829
 H         -26.957706      -80.948486      -26.323740
 C         -30.918041      -84.237610      -25.255589
 C         -30.624706      -84.247498      -23.802422
 C         -31.712994      -85.464149      -25.726559
 C         -31.836584      -84.730980      -22.870434
 C         -32.770081      -86.054642      -24.785082
 C         -32.338562      -86.045547      -23.309153
 H         -30.400057      -83.136757      -23.500223
 H         -29.810980      -84.896637      -23.537376
 H         -32.155006      -85.152359      -26.698673
 H         -31.030527      -86.341286      -25.905731
 H         -32.600857      -83.855637      -22.856106
 H         -31.488047      -84.696564      -21.886000
 H         -32.981968      -87.041031      -25.015913
 H         -33.746906      -85.583717      -24.761026
 H         -33.145233      -86.302132      -22.677233
 H         -31.557968      -86.734512      -23.135168
