20
 generated by VMD
 C          -1.734897       -8.625551        0.362803
 N          -2.277024       -9.187712       -0.481596
 H          -2.679535      -10.181068        2.720500
 H          -2.024526      -11.350575        3.723463
 C          -2.885014      -11.152670        3.063671
 C          -2.912586      -12.291566        1.967536
 C          -4.107811      -11.125878        3.959212
 C          -3.271321      -13.627209        2.583173
 C          -4.440655      -12.507686        4.453205
 C          -4.569946      -13.582020        3.338799
 H          -1.912561      -12.349794        1.453895
 H          -3.601720      -12.029839        1.173717
 H          -3.924574      -10.380784        4.735744
 H          -4.876937      -10.721564        3.373268
 H          -2.484345      -13.988400        3.233997
 H          -3.313525      -14.397589        1.798458
 H          -5.406571      -12.444781        5.053778
 H          -3.636303      -12.868097        5.151877
 H          -4.696333      -14.548641        3.894326
 H          -5.463467      -13.552185        2.642086
