20
 generated by VMD
 C         -12.834544      -28.725115       -5.969208
 N         -13.075888      -28.710548       -7.054741
 H         -12.155680      -31.320690       -4.982034
 H         -11.100879      -29.862011       -5.052315
 C         -11.118875      -30.960049       -4.744599
 C         -10.092694      -31.650980       -5.621358
 C         -10.842977      -30.990795       -3.271237
 C          -8.643081      -31.463093       -5.222342
 C          -9.435860      -30.949297       -2.850724
 C          -8.500283      -31.773540       -3.663982
 H         -10.276707      -31.367126       -6.596347
 H         -10.452113      -32.730228       -5.549177
 H         -11.357943      -30.186182       -2.747339
 H         -11.275268      -31.882284       -2.899937
 H          -8.394196      -30.407743       -5.400758
 H          -7.945302      -32.107578       -5.739072
 H          -9.374533      -31.255260       -1.779296
 H          -9.035266      -29.946316       -2.853958
 H          -7.421374      -31.493084       -3.376630
 H          -8.636147      -32.844234       -3.470086
