20
 generated by VMD
 C         -29.161331      -80.462914      -27.024385
 N         -30.028757      -80.205719      -27.742781
 H         -28.128933      -82.842850      -24.270828
 H         -28.255543      -80.790840      -26.620556
 C         -29.169487      -83.123909      -23.955927
 C         -29.449539      -83.109055      -22.558704
 C         -29.987030      -83.979073      -24.879816
 C         -30.924570      -83.226128      -22.192682
 C         -31.501835      -84.109764      -24.568762
 C         -31.668808      -84.320610      -23.046436
 H         -29.148989      -82.228531      -22.143591
 H         -29.021351      -83.979515      -22.063755
 H         -29.854441      -83.583206      -25.875370
 H         -29.512331      -85.028091      -24.818897
 H         -31.437185      -82.192490      -22.383348
 H         -30.953928      -83.606270      -21.238937
 H         -31.782099      -84.917809      -25.153162
 H         -31.970884      -83.152534      -24.874365
 H         -32.709911      -84.276947      -22.862606
 H         -31.370625      -85.393929      -22.856308
