20
 generated by VMD
 C         -29.893745      -91.633553      -25.409910
 N         -29.050718      -92.176048      -24.873972
 H         -32.713020      -89.868370      -26.529020
 H         -30.532007      -91.049316      -25.964928
 C         -33.094196      -90.290497      -27.431015
 C         -34.113972      -91.399445      -27.291636
 C         -33.143948      -89.580528      -28.684908
 C         -35.590866      -91.054886      -27.709034
 C         -34.622005      -89.067673      -28.863813
 C         -35.735363      -90.119972      -28.929861
 H         -34.208969      -92.002411      -26.368294
 H         -33.911907      -92.275665      -27.986607
 H         -32.503159      -88.756081      -28.594942
 H         -32.734890      -90.203613      -29.462835
 H         -35.962997      -90.468597      -26.820810
 H         -36.155327      -91.996948      -27.744499
 H         -34.647068      -88.550148      -29.852892
 H         -34.886196      -88.255653      -28.141033
 H         -36.732204      -89.643105      -29.155483
 H         -35.506775      -90.688118      -29.876949
