20
 generated by VMD
 C         -11.390559      -33.562355       -9.167073
 N         -10.500609      -33.075912       -8.771939
 H         -12.218319      -35.120934       -7.452498
 H         -12.822008      -35.252228       -5.789843
 C         -12.615465      -35.793037       -6.701013
 C         -11.687792      -36.927338       -6.423110
 C         -13.981460      -36.285664       -7.140049
 C         -12.225868      -37.850483       -5.325999
 C         -14.548890      -37.132599       -5.975757
 C         -13.644761      -38.287197       -5.577853
 H         -10.663873      -36.573765       -6.230937
 H         -11.657567      -37.587082       -7.336079
 H         -14.683333      -35.538433       -7.432366
 H         -13.885940      -36.935787       -8.065766
 H         -12.141949      -37.272537       -4.397710
 H         -11.454738      -38.689457       -5.350719
 H         -15.577097      -37.428894       -6.121881
 H         -14.632854      -36.464756       -5.083786
 H         -14.043750      -38.778088       -4.706395
 H         -13.754087      -39.065434       -6.338453
