20
 generated by VMD
 C         -69.882645     -183.292389      -65.303047
 N         -69.660255     -182.381287      -66.013206
 H         -68.027756     -184.929550      -62.895855
 H         -70.086433     -184.174728      -64.704643
 C         -67.808342     -184.148636      -62.188522
 C         -67.963531     -184.531281      -60.804729
 C         -68.014999     -182.713486      -62.683487
 C         -67.263245     -183.554596      -59.856026
 C         -67.111641     -181.859665      -61.784065
 C         -67.404099     -182.051193      -60.239075
 H         -67.737656     -185.506912      -60.428631
 H         -69.032257     -184.552979      -60.546593
 H         -67.659126     -182.677689      -63.745968
 H         -69.072777     -182.408447      -62.635880
 H         -66.150383     -183.758194      -59.860416
 H         -67.543816     -183.742401      -58.750072
 H         -67.227654     -180.770844      -61.946541
 H         -66.087296     -182.136719      -61.968754
 H         -66.637749     -181.310059      -59.871742
 H         -68.334717     -181.516647      -59.977325
