20
 generated by VMD
 C         -40.495850     -118.794746      -35.536858
 N         -39.579372     -118.361649      -35.006054
 H         -43.430176     -116.624313      -36.042782
 H         -41.314175     -119.335747      -35.974693
 C         -43.949429     -116.957626      -36.948772
 C         -43.031300     -117.433571      -38.034245
 C         -45.155128     -116.321564      -37.476322
 C         -43.719288     -118.187859      -39.188038
 C         -45.882961     -117.072067      -38.539532
 C         -44.995869     -117.566071      -39.744732
 H         -42.089401     -117.905624      -37.638115
 H         -42.539333     -116.605972      -38.657661
 H         -45.879311     -115.987877      -36.675247
 H         -44.775024     -115.420929      -37.876411
 H         -44.019356     -119.167015      -38.882843
 H         -42.938633     -118.450783      -39.966557
 H         -46.670868     -116.408676      -38.952908
 H         -46.235451     -117.959282      -38.178596
 H         -45.631775     -118.251053      -40.368587
 H         -44.861252     -116.736816      -40.342091
