20
 generated by VMD
 C         -67.372604     -192.008621      -67.397667
 N         -67.626190     -192.773865      -66.584435
 H         -69.890579     -189.788376      -65.569374
 H         -67.268867     -191.272964      -68.131912
 C         -70.961784     -189.967712      -65.244499
 C         -71.768494     -190.924820      -66.089333
 C         -71.571648     -189.326218      -63.962132
 C         -72.993462     -191.498962      -65.432915
 C         -73.015266     -189.736832      -63.738262
 C         -73.217323     -191.206039      -64.000839
 H         -71.140335     -191.732239      -66.337303
 H         -72.164108     -190.323364      -66.937981
 H         -71.086655     -189.741119      -63.158268
 H         -71.443710     -188.248550      -63.946743
 H         -72.987350     -192.567398      -65.609062
 H         -73.831909     -191.129715      -66.092049
 H         -73.533417     -189.088089      -64.457886
 H         -73.370552     -189.472351      -62.725651
 H         -72.552963     -191.825089      -63.295227
 H         -74.219238     -191.572586      -63.606468
