20
 generated by VMD
 C         -38.313068     -110.787086      -36.249023
 N         -38.026752     -109.690086      -36.350815
 H         -40.102222     -113.473595      -35.776943
 H         -38.751911     -111.741974      -36.002052
 C         -41.082985     -113.141350      -35.824577
 C         -42.098701     -113.784012      -36.697773
 C         -41.479473     -112.164711      -34.795879
 C         -43.352650     -114.294510      -36.054123
 C         -42.884224     -112.489082      -34.126064
 C         -43.920319     -113.050499      -35.171730
 H         -41.654945     -114.619637      -37.278793
 H         -42.355331     -113.031105      -37.487488
 H         -40.794052     -111.884239      -34.006783
 H         -41.728004     -111.237007      -35.235847
 H         -42.989807     -115.106750      -35.297909
 H         -44.110451     -114.560608      -36.847717
 H         -43.131958     -111.566856      -33.698360
 H         -42.814445     -113.165367      -33.320992
 H         -44.884930     -113.261086      -34.728477
 H         -44.129116     -112.280220      -36.071854
