20
 generated by VMD
 C         -40.454342     -117.536110      -34.590931
 N         -39.456970     -117.110329      -34.972069
 H         -41.845741     -116.359543      -37.012333
 H         -41.201256     -118.256699      -34.135727
 C         -42.761791     -116.542679      -37.482426
 C         -42.898087     -116.608498      -38.962063
 C         -44.051094     -116.270142      -36.735439
 C         -44.136917     -117.307541      -39.483681
 C         -45.378090     -116.923759      -37.345825
 C         -45.489304     -116.769012      -38.918766
 H         -42.050793     -117.049797      -39.457142
 H         -42.840000     -115.618462      -39.369301
 H         -43.875294     -116.823418      -35.718830
 H         -44.397102     -115.266052      -36.594513
 H         -44.255173     -118.396957      -39.205715
 H         -44.220665     -117.322090      -40.603466
 H         -46.040474     -116.360687      -36.731861
 H         -45.296494     -117.950928      -37.170689
 H         -46.269794     -117.318359      -39.238312
 H         -45.681549     -115.844719      -39.384602
