20
 generated by VMD
 C         -29.549700      -87.950951      -24.982534
 N         -28.929794      -88.373642      -25.872932
 H         -31.220129      -89.272781      -27.651308
 H         -30.054827      -87.562592      -24.052444
 C         -32.252930      -89.548096      -27.409094
 C         -32.707863      -89.450699      -25.981689
 C         -33.466476      -89.426979      -28.513939
 C         -33.510731      -88.217598      -25.648180
 C         -34.151985      -88.189461      -28.153362
 C         -34.555397      -87.864014      -26.702747
 H         -31.979412      -89.631256      -25.155937
 H         -33.360947      -90.397408      -25.713892
 H         -32.995872      -89.656570      -29.493658
 H         -34.157562      -90.240547      -28.299536
 H         -32.809090      -87.281845      -25.689512
 H         -34.020092      -88.293320      -24.717403
 H         -35.058842      -88.135345      -28.797588
 H         -33.426472      -87.400742      -28.475885
 H         -35.020344      -86.774162      -26.682447
 H         -35.481567      -88.483742      -26.450285
