20
 generated by VMD
 C         -38.332802     -112.827057      -36.114178
 N         -37.369541     -112.356918      -36.619778
 H         -41.242661     -114.847443      -34.803165
 H         -39.237240     -113.093369      -35.643555
 C         -42.109089     -114.614754      -35.394554
 C         -42.048370     -114.701118      -36.912415
 C         -43.268032     -113.908890      -34.706779
 C         -43.396961     -114.816238      -37.585281
 C         -44.607597     -114.094353      -35.435787
 C         -44.463116     -114.053192      -36.942963
 H         -41.462578     -115.563202      -36.999935
 H         -41.603527     -113.725525      -37.076340
 H         -43.482353     -114.447739      -33.788143
 H         -43.143826     -112.832413      -34.546612
 H         -43.730312     -115.824532      -37.556625
 H         -43.298626     -114.482346      -38.649334
 H         -45.359837     -113.531296      -34.904030
 H         -45.004154     -115.116554      -35.239933
 H         -45.487644     -114.250275      -37.422825
 H         -44.309792     -112.943039      -37.096272
