20
 generated by VMD
 C         -47.991402     -124.952583      -38.598347
 N         -47.086624     -125.709770      -38.728168
 H         -45.573505     -123.110138      -37.853737
 H         -48.746250     -124.199760      -38.362209
 C         -45.085701     -122.902504      -38.818283
 C         -44.008663     -123.784012      -39.395557
 C         -45.730270     -121.795731      -39.636021
 C         -44.428909     -124.233871      -40.819077
 C         -46.017021     -122.354637      -41.034336
 C         -44.841808     -122.970078      -41.668533
 H         -44.032055     -124.724464      -38.817719
 H         -42.899620     -123.394409      -39.361988
 H         -46.649521     -121.277458      -39.174274
 H         -44.876308     -121.092773      -39.609375
 H         -45.297756     -124.928032      -40.809235
 H         -43.821072     -125.004433      -41.380344
 H         -46.535961     -121.631241      -41.627464
 H         -46.786880     -123.052048      -41.154358
 H         -45.107159     -123.260216      -42.741520
 H         -44.020874     -122.224472      -41.774208
