20
 generated by VMD
 C         -70.823929     -181.575790      -64.247810
 N         -70.220840     -182.381607      -63.615250
 H         -68.527802     -181.059387      -61.069771
 H         -71.396317     -180.795547      -64.743713
 C         -67.554222     -180.798569      -60.775810
 C         -66.567390     -181.758789      -60.585670
 C         -67.295898     -179.361816      -60.404926
 C         -65.057457     -181.200577      -60.800053
 C         -65.871155     -178.915253      -60.915241
 C         -64.819405     -179.789856      -60.312828
 H         -66.566978     -182.663803      -61.252106
 H         -66.561852     -182.077499      -59.498886
 H         -68.134254     -178.802811      -60.750679
 H         -67.284081     -179.436829      -59.369728
 H         -64.658394     -181.412079      -61.764233
 H         -64.337746     -181.828613      -60.246056
 H         -65.728462     -177.872162      -60.589386
 H         -65.837257     -178.958588      -61.990356
 H         -63.705120     -179.538773      -60.592278
 H         -64.896561     -179.727264      -59.214626
