20
 generated by VMD
 C         -49.815353     -127.740860      -39.079525
 N         -49.520134     -126.670319      -38.763824
 H         -47.159214     -125.838364      -40.332142
 H         -50.001308     -128.744934      -39.482830
 C         -46.284145     -125.258728      -40.667419
 C         -44.916508     -125.779099      -40.580338
 C         -46.451546     -123.831154      -41.161140
 C         -43.679352     -124.954910      -40.857872
 C         -45.201382     -122.978386      -41.526829
 C         -43.994049     -123.478172      -40.658291
 H         -44.815872     -126.721573      -41.085209
 H         -44.972675     -125.944267      -39.552094
 H         -47.111832     -123.902771      -42.090912
 H         -47.087708     -123.475060      -40.400730
 H         -43.379745     -125.118080      -41.876728
 H         -42.845570     -125.240273      -40.234020
 H         -45.655346     -121.968872      -41.425529
 H         -45.036751     -123.107910      -42.615082
 H         -43.148567     -122.807060      -40.785851
 H         -44.340118     -123.485870      -39.580837
