20
 generated by VMD
 C         -47.384323     -139.071869      -45.695126
 N         -46.816956     -138.631210      -46.587410
 H         -50.794109     -138.891602      -44.653473
 H         -47.946465     -139.563812      -44.944630
 C         -51.755356     -138.918976      -45.163639
 C         -51.793976     -139.143036      -46.601360
 C         -52.974335     -138.411774      -44.374035
 C         -52.945805     -140.185394      -46.902355
 C         -54.114239     -139.444016      -44.645824
 C         -54.270256     -139.788086      -46.130615
 H         -50.926899     -139.553040      -46.988159
 H         -51.840469     -138.146255      -47.042599
 H         -52.751907     -138.326920      -43.280872
 H         -53.236275     -137.384613      -44.685951
 H         -52.633064     -141.158890      -46.475910
 H         -53.109623     -140.354568      -47.995644
 H         -55.144737     -139.251785      -44.285873
 H         -53.804760     -140.242935      -44.064251
 H         -55.131645     -140.456009      -46.277199
 H         -54.791302     -138.780930      -46.658234
