20
 generated by VMD
 C         -41.510361     -119.684662      -34.265373
 N         -41.609074     -120.437042      -35.151768
 H         -43.340240     -118.656700      -36.784870
 H         -41.686523     -119.005150      -33.391315
 C         -43.772400     -118.421280      -37.700478
 C         -43.053162     -118.324532      -38.993931
 C         -45.115181     -117.807083      -37.821671
 C         -43.824997     -118.696625      -40.315666
 C         -45.961632     -118.124649      -39.105316
 C         -45.219280     -117.908859      -40.390862
 H         -42.204197     -118.978653      -39.048126
 H         -42.728428     -117.367065      -39.150139
 H         -45.591270     -118.245544      -36.903076
 H         -45.162868     -116.656387      -37.633999
 H         -44.065174     -119.782326      -40.365711
 H         -43.250053     -118.560783      -41.210056
 H         -46.856777     -117.365883      -39.184258
 H         -46.506439     -119.200180      -39.154900
 H         -45.681686     -118.196083      -41.355362
 H         -45.037205     -116.805908      -40.628719
