20
 generated by VMD
 C         -46.971310     -124.909111      -38.083652
 N         -47.928375     -125.506401      -38.280315
 H         -44.608875     -122.164551      -37.697098
 H         -46.307117     -124.118126      -37.968189
 C         -44.710777     -122.333015      -38.732944
 C         -43.574810     -122.854317      -39.576668
 C         -45.719662     -121.524025      -39.506092
 C         -44.084660     -123.521027      -40.842373
 C         -46.077156     -122.164543      -40.771557
 C         -44.945133     -122.674988      -41.669685
 H         -42.997501     -123.567841      -38.961891
 H         -42.951431     -122.102554      -39.888485
 H         -46.551975     -121.249466      -38.916542
 H         -45.224770     -120.540100      -39.779400
 H         -44.518147     -124.489243      -40.483788
 H         -43.357079     -124.045166      -41.403679
 H         -46.821121     -121.568039      -41.336414
 H         -46.642998     -123.045181      -40.366749
 H         -45.355598     -123.123497      -42.582478
 H         -44.443161     -121.786118      -41.956673
