20
 generated by VMD
 C          -1.225626      -13.002563        1.086733
 N          -0.549143      -12.909820        0.167368
 H          -4.160647      -13.131668        1.645382
 H          -5.523110      -13.063653        0.641496
 C          -5.025472      -13.761928        1.314437
 C          -5.810970      -14.136657        2.584334
 C          -4.386425      -14.966422        0.642570
 C          -6.735902      -15.370152        2.394770
 C          -5.395226      -16.082968        0.426207
 C          -6.051367      -16.543543        1.689040
 H          -6.514193      -13.327890        2.858960
 H          -5.097987      -14.360681        3.353307
 H          -4.017065      -14.764544       -0.352218
 H          -3.506060      -15.344730        1.224370
 H          -7.492318      -15.079947        1.671510
 H          -7.255022      -15.737818        3.300506
 H          -4.921013      -16.952196       -0.047828
 H          -6.175285      -15.694036       -0.262973
 H          -6.770100      -17.303919        1.551401
 H          -5.348518      -16.919455        2.389143
