20
 generated by VMD
 C         -58.592052     -160.072800      -57.029179
 N         -58.505066     -159.930603      -58.146854
 H         -58.848759     -162.419556      -54.980797
 H         -58.598526     -160.236359      -55.962276
 C         -59.572918     -162.443192      -54.185429
 C         -59.091896     -162.584686      -52.785072
 C         -60.959042     -162.754517      -54.613907
 C         -60.290928     -162.122055      -51.898594
 C         -61.841736     -161.943802      -53.650021
 C         -61.704082     -162.434021      -52.306595
 H         -58.331749     -161.849365      -52.669323
 H         -58.806473     -163.695251      -52.687038
 H         -61.067123     -162.299301      -55.630737
 H         -61.211559     -163.815063      -54.601566
 H         -60.355618     -160.978928      -51.703899
 H         -60.104870     -162.465164      -50.874065
 H         -62.781013     -162.150894      -54.139885
 H         -61.845242     -160.872437      -53.602543
 H         -62.430241     -161.955551      -51.642853
 H         -61.845993     -163.567169      -52.235947
