20
 generated by VMD
 C         -57.666317     -164.271561      -56.670673
 N         -57.269314     -163.358734      -57.189762
 H         -59.786354     -165.211777      -54.521843
 H         -57.973534     -165.184143      -56.184265
 C         -60.856441     -164.829666      -54.593594
 C         -61.779568     -165.491745      -53.633709
 C         -61.340866     -164.458221      -55.880894
 C         -63.274426     -164.994278      -53.653671
 C         -62.796745     -163.771637      -55.857079
 C         -63.710514     -164.818787      -55.137325
 H         -61.296581     -165.770142      -52.624207
 H         -61.827553     -166.542648      -54.011143
 H         -60.666119     -163.965958      -56.572746
 H         -61.584476     -165.464691      -56.366737
 H         -63.308994     -164.064407      -53.014919
 H         -63.876648     -165.912140      -53.278011
 H         -63.025467     -163.437607      -56.807335
 H         -62.598099     -162.724091      -55.381065
 H         -64.709885     -164.499084      -55.310200
 H         -63.599857     -165.743195      -55.645481
