20
 generated by VMD
 C         -28.315958      -84.098373      -27.165276
 N         -27.551268      -83.430443      -26.575686
 H         -31.861162      -84.222763      -26.134094
 H         -29.009876      -84.734261      -27.690912
 C         -31.667921      -85.216652      -25.751875
 C         -31.438484      -85.458664      -24.273083
 C         -31.944969      -86.546005      -26.518702
 C         -32.786713      -85.956825      -23.686377
 C         -33.203636      -87.144745      -25.973217
 C         -33.250591      -87.138657      -24.435568
 H         -31.077829      -84.472794      -23.877424
 H         -30.576797      -86.025589      -24.007862
 H         -32.266113      -86.294228      -27.478926
 H         -31.041414      -87.199844      -26.549522
 H         -33.506340      -85.100525      -23.714869
 H         -32.578793      -86.189964      -22.682722
 H         -33.412384      -88.172409      -26.309158
 H         -34.167965      -86.539650      -26.225019
 H         -34.278328      -87.544556      -24.019482
 H         -32.603336      -88.023827      -24.313646
