20
 generated by VMD
 C         -49.679043     -131.780701      -46.581585
 N         -50.110752     -132.553680      -47.297737
 H         -47.514484     -133.312073      -43.968918
 H         -49.069008     -130.947479      -46.227520
 C         -48.595047     -133.430344      -43.612103
 C         -49.412647     -134.651825      -44.033676
 C         -49.106243     -132.682281      -42.473465
 C         -49.533337     -135.650925      -42.843880
 C         -49.211617     -133.607941      -41.247299
 C         -49.997375     -134.834579      -41.538647
 H         -49.026432     -135.165497      -44.858841
 H         -50.448376     -134.379272      -44.265617
 H         -48.354641     -131.840256      -42.214077
 H         -50.135284     -132.204559      -42.751411
 H         -48.559734     -136.268921      -42.695988
 H         -50.332867     -136.421112      -42.867947
 H         -49.641506     -133.046249      -40.402149
 H         -48.273056     -133.858231      -40.844284
 H         -49.768707     -135.486420      -40.616840
 H         -50.962383     -134.443192      -41.684120
