20
 generated by VMD
 C         -70.245850     -183.035675      -64.202377
 N         -70.133850     -183.418152      -65.260719
 H         -68.228577     -180.253525      -62.561470
 H         -70.325043     -182.648819      -63.216446
 C         -67.696861     -180.621719      -61.682316
 C         -67.859215     -181.978500      -61.289776
 C         -66.901520     -179.582214      -61.027637
 C         -66.495567     -182.521027      -60.799854
 C         -65.691078     -180.145554      -60.342072
 C         -65.822350     -181.579712      -59.807613
 H         -68.211067     -182.496277      -62.157791
 H         -68.483124     -182.046097      -60.356777
 H         -66.732269     -178.868088      -61.864040
 H         -67.579254     -179.046814      -60.304893
 H         -65.757729     -182.603882      -61.717781
 H         -66.418106     -183.520905      -60.400703
 H         -65.274399     -179.396088      -59.679756
 H         -64.938004     -180.307205      -61.087078
 H         -64.849518     -181.949661      -59.517567
 H         -66.412025     -181.756775      -58.912823
