20
 generated by VMD
 C         -21.521967      -55.974304      -17.547968
 N         -20.678228      -55.298805      -17.980343
 H         -23.370428      -58.673969      -15.381354
 H         -22.440752      -56.493370      -17.127596
 C         -22.406763      -59.144955      -15.093121
 C         -21.716188      -58.940826      -13.710544
 C         -21.737688      -59.972702      -16.127384
 C         -20.894903      -60.126480      -13.243911
 C         -20.240807      -60.418049      -15.625178
 C         -20.460756      -61.184765      -14.340776
 H         -22.479248      -58.645565      -12.948133
 H         -20.944563      -58.177452      -13.812388
 H         -22.274071      -60.902565      -16.359978
 H         -21.583052      -59.398460      -17.033148
 H         -21.468700      -60.615635      -12.422093
 H         -19.964445      -59.721054      -12.798029
 H         -19.466503      -59.588039      -15.502872
 H         -19.974098      -61.219078      -16.337336
 H         -21.050318      -62.125771      -14.381155
 H         -19.513124      -61.509113      -13.935132
