20
 generated by VMD
 C         -15.262212      -47.339394       -6.263293
 N         -15.380672      -46.821178       -5.288628
 H         -16.214605      -46.580910       -9.806535
 H         -15.034697      -46.500156      -11.010789
 C         -16.107605      -46.259762      -10.849040
 C         -16.429819      -44.813728      -10.876992
 C         -16.987989      -47.089375      -11.834853
 C         -16.308838      -44.272327      -12.299689
 C         -16.872040      -46.708149      -13.300979
 C         -17.133295      -45.187218      -13.257591
 H         -15.739027      -44.257561      -10.236461
 H         -17.412615      -44.738491      -10.435585
 H         -16.695850      -48.115543      -11.758903
 H         -18.037876      -46.959217      -11.502107
 H         -15.245735      -44.204735      -12.566237
 H         -16.753828      -43.288792      -12.406923
 H         -17.609560      -47.162079      -13.884963
 H         -15.828035      -46.820194      -13.699932
 H         -16.938698      -44.818001      -14.251345
 H         -18.211220      -45.052097      -13.027421
