20
 generated by VMD
 C         -68.374779     -193.843994      -65.788177
 N         -68.009521     -194.708588      -65.112541
 H         -70.477592     -191.947952      -67.064148
 H         -68.428780     -192.991714      -66.411324
 C         -71.500458     -191.824356      -66.749748
 C         -72.208420     -190.485672      -66.478615
 C         -72.040947     -193.124100      -66.114738
 C         -73.720886     -190.598160      -66.141632
 C         -73.008743     -192.827026      -64.974289
 C         -74.160484     -191.926086      -65.515770
 H         -72.119194     -189.958832      -67.349617
 H         -71.550972     -190.004761      -65.715218
 H         -72.592712     -193.668915      -66.893028
 H         -71.253296     -193.654251      -65.519730
 H         -74.285164     -190.521759      -67.103638
 H         -73.831810     -189.780609      -65.434319
 H         -72.521065     -192.272217      -64.123238
 H         -73.407227     -193.756866      -64.615623
 H         -74.780388     -192.461105      -66.192223
 H         -74.948730     -191.690063      -64.630394
