20
 generated by VMD
 C         -27.473293      -84.587395      -26.305737
 N         -27.973976      -85.397537      -26.942648
 H         -31.107393      -84.980141      -26.120541
 H         -27.014978      -83.732086      -25.707130
 C         -31.950972      -85.559937      -25.812311
 C         -32.230106      -85.879082      -24.307144
 C         -32.191410      -86.512344      -26.913221
 C         -33.413712      -86.848152      -24.155327
 C         -33.416962      -87.430946      -26.655554
 C         -33.522633      -87.951881      -25.203215
 H         -32.325985      -84.917130      -23.782019
 H         -31.332426      -86.272141      -24.014347
 H         -32.290951      -86.108368      -27.890366
 H         -31.379427      -87.303268      -26.904562
 H         -34.328289      -86.291382      -24.211645
 H         -33.362846      -87.227654      -23.136599
 H         -33.270161      -88.287384      -27.324804
 H         -34.398125      -86.996689      -26.856695
 H         -34.531754      -88.411224      -25.142845
 H         -32.776291      -88.691475      -24.906361
