20
 generated by VMD
 C         -49.960762     -143.298172      -44.643917
 N         -49.184731     -143.431686      -45.450653
 H         -52.018723     -140.705490      -45.687321
 H         -50.599857     -143.137512      -43.762295
 C         -52.701107     -141.207962      -46.348148
 C         -52.081470     -141.493301      -47.696201
 C         -54.136433     -141.088379      -46.151928
 C         -53.089672     -142.217010      -48.630581
 C         -55.033794     -141.857849      -47.065800
 C         -54.505135     -141.642883      -48.475758
 H         -51.124523     -142.045013      -47.594360
 H         -51.754028     -140.634567      -48.181095
 H         -54.425076     -141.241547      -45.123348
 H         -54.402763     -140.047729      -46.194324
 H         -53.134411     -143.294006      -48.503704
 H         -52.603256     -142.017822      -49.565144
 H         -56.135387     -141.644608      -47.100170
 H         -54.938515     -142.915939      -46.805641
 H         -55.159290     -142.263123      -49.067295
 H         -54.519238     -140.551147      -48.586246
