20
 generated by VMD
 C         -11.814599      -25.787275       -0.878553
 N         -12.073371      -25.277197        0.075919
 H          -8.173856      -26.545807       -1.493524
 H          -9.221133      -25.812366       -2.658288
 C          -8.136675      -25.930443       -2.360128
 C          -7.399771      -26.685436       -3.490764
 C          -7.567764      -24.467325       -2.148563
 C          -7.290201      -25.931049       -4.756935
 C          -7.436406      -23.703583       -3.502147
 C          -6.624026      -24.523935       -4.533988
 H          -7.870535      -27.598557       -3.684028
 H          -6.416396      -26.696159       -3.019251
 H          -8.116390      -23.833738       -1.389119
 H          -6.535555      -24.582302       -1.854444
 H          -8.290423      -25.693554       -5.141555
 H          -6.668456      -26.506245       -5.445312
 H          -7.001647      -22.707701       -3.368824
 H          -8.472241      -23.541653       -3.839234
 H          -6.456668      -23.960747       -5.471642
 H          -5.660747      -24.679770       -4.044818
