20
 generated by VMD
 C         -72.431160     -198.882065      -65.518188
 N         -73.285950     -199.666992      -65.395905
 H         -70.964554     -195.936310      -67.556046
 H         -71.798698     -198.155319      -65.952339
 C         -71.981155     -195.836288      -67.872963
 C         -72.849152     -194.854843      -67.165192
 C         -72.508614     -196.530838      -69.022537
 C         -74.270454     -194.866699      -67.781792
 C         -73.965660     -196.972916      -68.905190
 C         -74.881828     -196.206146      -68.030533
 H         -72.538437     -193.833679      -67.196198
 H         -72.795639     -195.070206      -66.084702
 H         -72.546783     -195.813156      -69.860611
 H         -71.822212     -197.420929      -69.231705
 H         -74.246086     -194.260269      -68.757317
 H         -74.925758     -194.236313      -67.173950
 H         -73.908669     -197.974945      -68.531799
 H         -74.501015     -197.170013      -69.865120
 H         -75.949829     -196.144974      -68.328583
 H         -74.957779     -196.620972      -66.966339
