20
 generated by VMD
 C         -67.451233     -177.816193      -57.528385
 N         -67.468803     -178.769791      -56.871021
 H         -64.708595     -176.438309      -59.772938
 H         -67.464905     -176.974686      -58.166435
 C         -64.480804     -175.413055      -59.637722
 C         -65.611977     -174.456955      -59.586956
 C         -63.137043     -174.889587      -60.279591
 C         -65.281372     -173.018250      -59.433235
 C         -63.018433     -173.373810      -60.214222
 C         -64.291245     -172.578949      -60.537525
 H         -66.325668     -174.819672      -58.792294
 H         -66.248489     -174.547424      -60.477219
 H         -62.366577     -175.471970      -59.732208
 H         -63.187485     -175.305939      -61.349815
 H         -64.988167     -172.772003      -58.433666
 H         -66.156197     -172.389374      -59.443291
 H         -62.299110     -172.801758      -60.689926
 H         -62.767452     -173.217178      -59.091614
 H         -64.198265     -171.423676      -60.586136
 H         -64.607414     -172.821915      -61.532833
