20
 generated by VMD
 C         -50.401306     -145.093140      -45.213966
 N         -50.283974     -145.255142      -44.023083
 H         -52.870228     -143.189529      -45.974068
 H         -50.746212     -144.995224      -46.217083
 C         -53.439274     -143.079681      -46.915070
 C         -52.597279     -143.225876      -48.034546
 C         -54.710876     -142.284973      -46.972008
 C         -53.304123     -143.254608      -49.418964
 C         -55.499672     -142.495529      -48.272011
 C         -54.484745     -142.183685      -49.447292
 H         -51.947906     -144.182602      -48.006893
 H         -51.873344     -142.348389      -48.058105
 H         -55.399181     -142.509964      -46.115501
 H         -54.448986     -141.231979      -46.901169
 H         -53.919743     -144.256104      -49.621761
 H         -52.580849     -143.218292      -50.294819
 H         -56.312435     -141.786285      -48.524586
 H         -55.905754     -143.483780      -48.324181
 H         -55.032475     -142.362045      -50.464348
 H         -54.211819     -141.051941      -49.370354
