20
 generated by VMD
 C          -1.902595       -8.679098       -0.530624
 N          -2.107195       -7.960155        0.321812
 H          -3.368971       -9.491178        2.615224
 H          -1.838509      -10.334059        2.893357
 C          -2.972751      -10.377773        3.001196
 C          -3.649778      -11.466537        2.114897
 C          -3.291773      -10.525972        4.512902
 C          -3.475269      -12.883851        2.670739
 C          -3.036597      -11.979476        4.951182
 C          -3.808114      -13.021938        4.107173
 H          -3.140260      -11.377038        1.110982
 H          -4.697589      -11.196240        1.937060
 H          -2.585273       -9.806397        5.046649
 H          -4.374444      -10.324775        4.670965
 H          -2.399727      -13.004326        2.490998
 H          -3.971169      -13.520886        1.942864
 H          -3.342685      -12.166704        5.994740
 H          -1.986375      -12.159661        4.836266
 H          -3.498733      -14.031330        4.396208
 H          -4.844674      -12.833029        4.340534
