20
 generated by VMD
 C         -67.516953     -179.643188      -58.465889
 N         -68.529846     -180.226730      -58.371593
 H         -66.915443     -176.481995      -59.810284
 H         -66.645142     -179.014328      -58.532036
 C         -66.058197     -176.006104      -60.062958
 C         -65.989616     -175.151230      -61.244328
 C         -64.839531     -176.522873      -59.373978
 C         -65.016029     -174.030685      -60.994961
 C         -63.649574     -175.546600      -59.356110
 C         -63.594837     -174.520721      -60.575844
 H         -66.986771     -174.640854      -61.260281
 H         -65.970451     -175.562057      -62.247150
 H         -65.062263     -176.915863      -58.286343
 H         -64.481491     -177.406433      -59.913803
 H         -65.392944     -173.287292      -60.375443
 H         -64.984795     -173.449219      -61.924297
 H         -62.721935     -176.052673      -59.363956
 H         -63.652966     -174.975555      -58.406021
 H         -62.829151     -173.742783      -60.350540
 H         -63.290043     -175.050415      -61.442142
