20
 generated by VMD
 C         -30.433239      -79.626381      -25.974771
 N         -30.931866      -78.575302      -26.174625
 H         -28.482784      -82.500946      -25.621567
 H         -29.934948      -80.656357      -26.010059
 C         -28.942869      -82.290291      -24.638306
 C         -28.067562      -81.688332      -23.592918
 C         -29.975313      -83.224434      -24.226414
 C         -28.903812      -81.270943      -22.317636
 C         -30.828897      -82.735214      -23.068460
 C         -29.850431      -82.396614      -21.934147
 H         -27.565416      -80.845299      -24.134548
 H         -27.357401      -82.428665      -23.251678
 H         -30.721214      -83.375648      -25.064425
 H         -29.453167      -84.128906      -24.010733
 H         -29.608368      -80.354950      -22.370859
 H         -28.198418      -81.121750      -21.492725
 H         -31.586636      -83.486694      -22.754463
 H         -31.347189      -81.844238      -23.290535
 H         -30.504522      -81.991508      -21.143122
 H         -29.118885      -83.169197      -21.704088
