20
 generated by VMD
 C         -61.517574     -155.560745      -53.583370
 N         -61.831623     -155.140839      -54.620541
 H         -58.488396     -154.906097      -52.081985
 H         -61.223660     -155.928452      -52.580452
 C         -57.537277     -155.013336      -51.547993
 C         -57.456051     -154.430038      -50.192196
 C         -56.325150     -155.158676      -52.464756
 C         -56.140793     -154.839127      -49.582279
 C         -55.035515     -155.708679      -51.774921
 C         -54.860321     -154.725647      -50.442776
 H         -58.292580     -154.671249      -49.569855
 H         -57.455765     -153.328918      -50.218323
 H         -56.487209     -155.809906      -53.306400
 H         -56.198761     -154.114914      -52.941814
 H         -56.166023     -155.900848      -49.262993
 H         -55.989315     -154.383316      -48.636581
 H         -54.156929     -155.687881      -52.355541
 H         -55.161182     -156.806656      -51.513149
 H         -54.003548     -155.257919      -49.957970
 H         -54.624325     -153.679214      -50.739902
