20
 generated by VMD
 C         -21.238617      -52.158638       -9.841307
 N         -21.433596      -52.906902      -10.756222
 H         -19.697123      -50.238335      -12.428736
 H         -21.130871      -51.346313       -9.377152
 C         -18.603716      -50.258133      -12.696288
 C         -18.127186      -51.600456      -13.323204
 C         -17.548769      -49.391331      -12.166376
 C         -16.782082      -51.715958      -14.077414
 C         -16.344589      -49.310051      -13.141088
 C         -15.833879      -50.734379      -13.469703
 H         -18.966745      -51.988533      -13.876801
 H         -18.069155      -52.339314      -12.475368
 H         -17.955967      -48.369766      -12.179409
 H         -17.263348      -49.712681      -11.154685
 H         -17.034899      -51.407173      -15.119373
 H         -16.382311      -52.740334      -14.024314
 H         -15.653287      -48.697746      -12.632780
 H         -16.554016      -48.794834      -14.097631
 H         -14.975978      -50.729137      -14.186224
 H         -15.375798      -51.173210      -12.505856
