20
 generated by VMD
 C         -38.451244      -98.634262      -27.781889
 N         -38.382164      -99.718506      -27.366306
 H         -37.474224      -97.634277      -30.747320
 H         -38.373692      -97.570145      -28.117451
 C         -36.449707      -97.531380      -30.798473
 C         -35.673473      -98.130089      -31.970100
 C         -35.649639      -97.349358      -29.591591
 C         -34.379726      -97.316948      -32.154942
 C         -34.504265      -96.308800      -29.840956
 C         -33.650665      -96.722664      -31.014584
 H         -36.244675      -98.082039      -32.946522
 H         -35.304153      -99.140366      -31.908222
 H         -36.355804      -96.794571      -28.917048
 H         -35.303558      -98.301735      -29.109600
 H         -34.531113      -96.494720      -32.919086
 H         -33.663834      -98.043411      -32.540279
 H         -34.001827      -96.113541      -28.892923
 H         -35.073669      -95.346237      -30.198202
 H         -32.914505      -95.980026      -31.454008
 H         -32.968903      -97.450691      -30.551409
