20
 generated by VMD
 C         -32.641624      -92.948502      -25.763330
 N         -32.727882      -94.101776      -25.634180
 H         -33.718040      -94.981453      -28.982166
 H         -32.627712      -91.935013      -25.837320
 C         -34.182968      -94.031929      -29.074490
 C         -35.348606      -93.575188      -28.371199
 C         -33.778706      -93.290421      -30.243023
 C         -35.119019      -92.038017      -27.933638
 C         -33.632580      -91.845985      -29.857555
 C         -34.670074      -91.098457      -29.036423
 H         -35.464249      -94.235756      -27.382313
 H         -36.334534      -93.703568      -28.905418
 H         -32.839413      -93.684776      -30.656374
 H         -34.574184      -93.292259      -31.000967
 H         -34.484627      -92.003021      -27.083782
 H         -36.137653      -91.859375      -27.569515
 H         -33.397064      -91.134560      -30.682848
 H         -32.740479      -91.837769      -29.257372
 H         -34.234089      -90.277557      -28.388233
 H         -35.484447      -90.657639      -29.620121
