20
 generated by VMD
 C         -48.456554     -135.739624      -46.303642
 N         -47.585018     -135.970093      -45.516571
 H         -52.084206     -134.930344      -45.915020
 H         -49.029976     -135.592300      -47.244576
 C         -51.851635     -135.831055      -45.184883
 C         -52.468712     -137.105133      -45.597332
 C         -51.214897     -135.588989      -43.795788
 C         -51.653896     -138.304840      -45.131466
 C         -50.388855     -136.801514      -43.409424
 C         -51.106377     -138.154861      -43.680122
 H         -52.537827     -137.088089      -46.711510
 H         -53.467846     -137.209579      -45.199150
 H         -50.638809     -134.731003      -44.012894
 H         -51.996834     -135.353180      -43.038509
 H         -50.712593     -138.401703      -45.749268
 H         -52.142624     -139.275772      -45.206039
 H         -50.300739     -136.672424      -42.271046
 H         -49.288849     -136.833435      -43.723190
 H         -50.393143     -139.005478      -43.434044
 H         -52.013649     -138.467255      -42.886814
