20
 generated by VMD
 C         -49.181713     -127.185349      -39.641109
 N         -50.317776     -127.267525      -39.492207
 H         -47.039021     -127.082802      -42.561623
 H         -48.117611     -127.156143      -39.681522
 C         -46.398308     -126.533707      -41.826920
 C         -45.332481     -126.979538      -40.892464
 C         -46.559612     -124.914497      -42.039139
 C         -44.346199     -125.976143      -40.360634
 C         -45.459602     -124.073868      -41.479607
 C         -44.896236     -124.578789      -40.216438
 H         -44.803310     -127.842178      -41.341938
 H         -45.797199     -127.261925      -39.908581
 H         -46.606354     -124.683067      -43.082294
 H         -47.441002     -124.627533      -41.417507
 H         -43.608315     -125.910378      -41.131287
 H         -43.883228     -126.206535      -39.416218
 H         -45.820175     -123.046379      -41.245068
 H         -44.671730     -123.940567      -42.281334
 H         -44.071613     -124.011414      -39.818687
 H         -45.708317     -124.550392      -39.410946
