20
 generated by VMD
 C         -38.701721      -99.118774      -27.049450
 N         -37.727077      -99.088196      -26.448677
 H         -37.017517      -97.401627      -29.977077
 H         -39.592865      -99.095314      -27.762720
 C         -36.091087      -96.958939      -30.434687
 C         -35.429070      -97.516548      -31.679924
 C         -35.313965      -96.037018      -29.514811
 C         -34.474926      -96.477226      -32.207783
 C         -34.098080      -95.351585      -30.140814
 C         -33.400311      -96.233688      -31.190321
 H         -36.114487      -97.953369      -32.385559
 H         -34.869534      -98.468208      -31.315012
 H         -35.930191      -95.239021      -29.094051
 H         -34.988350      -96.741829      -28.700981
 H         -35.142975      -95.700066      -32.441418
 H         -33.979012      -96.976143      -33.073341
 H         -33.338406      -95.093277      -29.330633
 H         -34.297447      -94.428673      -30.649338
 H         -32.481098      -95.662491      -31.421276
 H         -33.146294      -97.247551      -30.758602
