20
 generated by VMD
 C         -50.448818     -131.781662      -47.017887
 N         -49.985188     -132.236725      -48.040890
 H         -48.774258     -131.418091      -43.596451
 H         -50.660149     -131.827774      -45.959698
 C         -48.776314     -132.305161      -43.025002
 C         -49.492737     -133.497009      -43.492104
 C         -48.580379     -132.067123      -41.501858
 C         -49.062038     -134.735184      -42.793381
 C         -48.274734     -133.442566      -40.795643
 C         -49.266968     -134.445297      -41.251263
 H         -49.399097     -133.680542      -44.553806
 H         -50.624294     -133.259918      -43.244957
 H         -47.807491     -131.388916      -41.277061
 H         -49.433178     -131.461487      -41.069214
 H         -48.004356     -134.970444      -42.906445
 H         -49.708263     -135.588013      -43.124496
 H         -48.209126     -133.163574      -39.696930
 H         -47.258121     -133.665314      -41.087738
 H         -49.043270     -135.424393      -40.711391
 H         -50.327335     -134.331223      -41.055374
