20
 generated by VMD
 C         -44.846806     -122.463821      -35.559422
 N         -45.059734     -123.388977      -34.900681
 H         -45.010853     -122.723701      -38.803665
 H         -44.741718     -121.692650      -36.273468
 C         -44.946640     -121.754089      -39.390533
 C         -43.523750     -121.381828      -39.621353
 C         -46.015102     -120.832291      -39.612293
 C         -43.361221     -120.368202      -40.818733
 C         -45.726128     -119.784737      -40.708424
 C         -44.266106     -119.200287      -40.576820
 H         -42.942471     -122.297707      -39.898605
 H         -43.259949     -121.016167      -38.601219
 H         -46.869720     -121.306519      -39.991940
 H         -46.352070     -120.363876      -38.685894
 H         -43.572594     -120.683067      -41.816063
 H         -42.276791     -120.008217      -40.762108
 H         -46.332176     -118.884804      -40.614040
 H         -45.953335     -120.061539      -41.848980
 H         -44.047161     -118.407425      -41.234203
 H         -44.052891     -118.828552      -39.634094
