20
 generated by VMD
 C         -38.096390     -108.010559      -37.285374
 N         -38.787083     -107.580261      -38.085968
 H         -40.760429     -108.223045      -34.321606
 H         -37.307243     -108.386726      -36.678329
 C         -40.930161     -109.314804      -34.536427
 C         -40.007412     -110.550598      -34.682045
 C         -42.320652     -109.637665      -33.990608
 C         -39.875343     -111.336830      -33.415627
 C         -42.231014     -110.447838      -32.682579
 C         -41.255054     -111.647514      -32.950268
 H         -39.041950     -110.076180      -34.970860
 H         -40.353222     -111.029579      -35.607933
 H         -42.816696     -108.731674      -33.757111
 H         -42.839996     -110.185829      -34.816299
 H         -39.416862     -110.855560      -32.537411
 H         -39.358562     -112.220505      -33.585835
 H         -43.179722     -111.022293      -32.349842
 H         -41.901352     -109.797455      -31.845066
 H         -41.155575     -112.174858      -32.094238
 H         -41.754051     -112.380020      -33.626984
