20
 generated by VMD
 C         -11.296436      -34.018372       -8.252829
 N         -10.808724      -33.990097       -9.235672
 H         -11.603831      -37.700974       -7.875516
 H         -12.687801      -37.167461       -6.484130
 C         -12.543368      -37.933449       -7.267273
 C         -12.454323      -39.294312       -6.604650
 C         -13.806715      -37.767120       -8.142661
 C         -13.736053      -39.642658       -5.810067
 C         -15.028699      -37.972015       -7.209803
 C         -15.028562      -39.307621       -6.570678
 H         -11.577176      -39.214630       -5.927797
 H         -12.186910      -40.097786       -7.302596
 H         -13.910024      -36.747871       -8.601673
 H         -13.911967      -38.518044       -8.919738
 H         -13.739107      -39.006462       -4.847070
 H         -13.717319      -40.688744       -5.547723
 H         -15.995999      -37.909081       -7.799863
 H         -15.042628      -37.214668       -6.469979
 H         -15.879132      -39.439087       -5.880714
 H         -15.196767      -40.004944       -7.354528
