20
 generated by VMD
 C         -72.886757     -199.278091      -65.629532
 N         -73.888405     -199.868683      -65.673828
 H         -71.478683     -197.069839      -66.997498
 H         -71.981255     -198.662491      -65.649437
 C         -72.172279     -196.558228      -67.651321
 C         -73.143677     -195.633759      -67.048294
 C         -72.367165     -196.907547      -69.047585
 C         -74.267563     -195.157837      -68.005737
 C         -73.883316     -197.377548      -69.285515
 C         -74.873550     -196.445145      -68.643272
 H         -72.654755     -194.624924      -66.812340
 H         -73.432274     -195.926880      -65.976746
 H         -72.149162     -196.064011      -69.667580
 H         -71.722397     -197.684952      -69.287544
 H         -73.940903     -194.526749      -68.814636
 H         -75.042282     -194.640884      -67.398163
 H         -73.941528     -198.422882      -68.876625
 H         -74.203995     -197.475845      -70.297775
 H         -75.486084     -196.167755      -69.379921
 H         -75.710030     -196.829391      -67.950981
