20
 generated by VMD
 C         -11.473907      -41.821480       -7.007072
 N         -11.867406      -42.352283       -6.092776
 H         -14.921246      -43.294647       -8.273627
 H         -14.830568      -41.925327       -9.109696
 C         -15.339173      -42.884586       -9.118677
 C         -16.854147      -42.673767       -8.953402
 C         -14.842752      -43.741249      -10.336552
 C         -17.547861      -42.483055      -10.274720
 C         -15.579879      -43.409538      -11.601928
 C         -17.043295      -43.502476      -11.307917
 H         -17.083855      -41.862854       -8.253228
 H         -17.221088      -43.598675       -8.556793
 H         -13.771070      -43.536316      -10.552798
 H         -15.123883      -44.740131      -10.081549
 H         -17.364080      -41.435841      -10.623415
 H         -18.629736      -42.716564      -10.168961
 H         -15.329777      -44.082207      -12.400420
 H         -15.243021      -42.390800      -11.975838
 H         -17.611710      -43.385586      -12.236413
 H         -17.415421      -44.466736      -10.929560
