20
 generated by VMD
 C         -47.757751     -125.288399      -39.094505
 N         -47.693947     -126.323013      -38.512737
 H         -45.790367     -123.159225      -37.946278
 H         -47.706852     -124.255783      -39.357544
 C         -45.337128     -123.036537      -38.889317
 C         -44.421738     -124.163780      -39.391090
 C         -45.674686     -121.919975      -39.770424
 C         -44.648319     -124.460213      -40.814850
 C         -45.745949     -122.255531      -41.204830
 C         -44.714912     -123.191444      -41.720417
 H         -44.471996     -125.240715      -38.921253
 H         -43.381123     -123.891113      -39.207710
 H         -46.592850     -121.430504      -39.569603
 H         -44.891098     -121.089668      -39.712494
 H         -45.503490     -125.105423      -41.003254
 H         -43.894775     -125.137184      -41.207127
 H         -45.895340     -121.425064      -41.777901
 H         -46.656368     -122.733818      -41.341206
 H         -44.902466     -123.438286      -42.825905
 H         -43.706566     -122.715225      -41.704182
