20
 generated by VMD
 C         -61.621284     -172.371002      -54.931908
 N         -60.656857     -172.988953      -55.191338
 H         -62.148327     -170.699387      -58.511543
 H         -62.408150     -171.677353      -54.756588
 C         -62.801167     -170.124481      -57.832165
 C         -62.543060     -168.578339      -57.657413
 C         -64.264694     -170.524750      -57.611046
 C         -63.462353     -167.854126      -58.688675
 C         -65.084686     -169.704300      -58.595074
 C         -64.914955     -168.244568      -58.505699
 H         -61.483364     -168.398422      -57.808567
 H         -62.747185     -168.233536      -56.591370
 H         -64.447884     -171.571182      -57.756401
 H         -64.637268     -170.326477      -56.567352
 H         -63.127010     -168.124466      -59.735058
 H         -63.485363     -166.795532      -58.645123
 H         -66.200203     -169.881775      -58.450089
 H         -64.893944     -170.057800      -59.709660
 H         -65.416039     -167.621033      -59.194160
 H         -65.243591     -167.929047      -57.514202
