20
 generated by VMD
 C         -66.734688     -177.894012      -56.984268
 N         -67.816956     -178.336639      -56.872955
 H         -64.384377     -176.266144      -59.429821
 H         -65.766312     -177.472382      -57.068794
 C         -64.277405     -175.151962      -59.648098
 C         -65.477966     -174.260193      -59.387653
 C         -63.148766     -174.471817      -60.403767
 C         -65.203079     -172.797607      -59.217854
 C         -63.016315     -173.013321      -60.382946
 C         -64.342949     -172.343857      -60.442188
 H         -66.177254     -174.687195      -58.586121
 H         -65.902710     -174.297012      -60.392159
 H         -62.195583     -174.920883      -60.033165
 H         -63.391121     -174.853897      -61.482494
 H         -64.624687     -172.696609      -58.246819
 H         -66.158394     -172.224731      -59.100784
 H         -62.345001     -172.751694      -61.173744
 H         -62.596291     -172.592285      -59.426598
 H         -64.232338     -171.238617      -60.383503
 H         -65.014259     -172.581955      -61.220898
