20
 generated by VMD
 C         -76.758995     -203.259323      -66.697098
 N         -77.480774     -203.794052      -65.994514
 H         -75.170517     -200.646118      -68.154060
 H         -75.963493     -202.694138      -67.149040
 C         -74.714966     -199.971863      -68.830086
 C         -74.910858     -198.446716      -68.788467
 C         -73.657585     -200.461227      -69.847748
 C         -73.448593     -197.826553      -68.783218
 C         -73.148239     -199.529068      -70.881081
 C         -72.817085     -198.100143      -70.209496
 H         -75.397392     -198.210770      -67.824654
 H         -75.620529     -198.062241      -69.568741
 H         -72.871780     -200.775925      -69.120850
 H         -74.130295     -201.234741      -70.420074
 H         -72.745834     -198.323181      -68.062927
 H         -73.530586     -196.775299      -68.488213
 H         -73.922646     -199.489166      -71.695381
 H         -72.173538     -199.887665      -71.285332
 H         -71.748207     -198.084763      -70.219917
 H         -73.111122     -197.337646      -70.987625
