20
 generated by VMD
 C         -60.002026     -157.547028      -56.017612
 N         -60.225948     -157.616058      -57.157696
 H         -60.051636     -157.385178      -52.296570
 H         -59.665150     -157.541168      -54.961472
 C         -59.247856     -158.001785      -52.704193
 C         -57.873196     -157.564758      -52.202503
 C         -59.487091     -159.389771      -53.001205
 C         -57.619713     -158.428421      -50.886822
 C         -59.051208     -160.291885      -51.852436
 C         -57.723495     -159.940414      -51.222321
 H         -57.888268     -156.562958      -51.930576
 H         -57.036339     -157.647141      -52.922901
 H         -60.558907     -159.430847      -53.229191
 H         -58.876766     -159.651062      -53.890434
 H         -58.228500     -158.197708      -49.972847
 H         -56.675735     -158.166626      -50.542656
 H         -59.232380     -161.245926      -52.226318
 H         -59.713768     -160.249802      -51.012772
 H         -57.429409     -160.597672      -50.360596
 H         -57.052448     -160.137878      -51.954731
