20
 generated by VMD
 C         -29.812651      -79.629402      -26.447514
 N         -30.366610      -78.846832      -25.839361
 H         -28.576597      -83.115417      -25.655544
 H         -29.131840      -80.479134      -26.830452
 C         -29.088144      -82.980865      -24.724913
 C         -28.626040      -81.995750      -23.682362
 C         -29.980883      -84.123695      -24.287973
 C         -29.829723      -81.539162      -22.816734
 C         -31.073093      -83.725822      -23.375257
 C         -30.570715      -82.813812      -22.194473
 H         -28.155825      -81.142868      -24.330286
 H         -27.781063      -82.361671      -23.084728
 H         -30.312660      -84.646729      -25.209740
 H         -29.476694      -84.901215      -23.772524
 H         -30.344643      -80.975121      -23.521311
 H         -29.462027      -80.837196      -21.979031
 H         -31.623808      -84.645012      -22.965462
 H         -31.769379      -83.071747      -23.840904
 H         -31.422821      -82.611504      -21.511738
 H         -29.953577      -83.264969      -21.478743
