20
 generated by VMD
 C         -58.550808     -161.426590      -56.270958
 N         -58.352310     -160.307190      -56.373077
 H         -59.532570     -164.728104      -55.462784
 H         -58.702568     -162.480530      -56.194515
 C         -60.190269     -164.228119      -54.683277
 C         -59.686337     -163.588806      -53.418190
 C         -61.719284     -164.282455      -54.890205
 C         -60.290344     -162.188538      -53.259308
 C         -62.424149     -162.893051      -54.744423
 C         -61.917557     -162.184647      -53.439301
 H         -58.590645     -163.582169      -53.429962
 H         -59.745617     -164.149307      -52.532295
 H         -62.004768     -164.775833      -55.904312
 H         -62.171413     -165.007263      -54.254574
 H         -59.833340     -161.441696      -53.947830
 H         -60.215870     -161.784378      -52.153976
 H         -63.559132     -163.044846      -54.586884
 H         -62.034801     -162.253540      -55.679630
 H         -62.368622     -161.196838      -53.255764
 H         -62.240700     -162.863800      -52.593029
