20
 generated by VMD
 C         -22.775759      -55.491276      -16.975624
 N         -23.087570      -54.381447      -17.280838
 H         -20.205093      -55.841839      -15.086438
 H         -22.189653      -56.558941      -16.916391
 C         -20.053986      -56.860180      -14.681274
 C         -20.621998      -57.153370      -13.370465
 C         -18.792963      -57.661758      -15.009889
 C         -20.868876      -58.633232      -13.203603
 C         -19.186878      -59.124577      -14.900842
 C         -19.788923      -59.558659      -13.636112
 H         -21.514570      -56.596745      -13.137940
 H         -19.862123      -56.856491      -12.696927
 H         -18.400932      -57.452572      -15.960842
 H         -17.964985      -57.448910      -14.306616
 H         -21.793871      -58.804932      -13.739326
 H         -21.079773      -58.875641      -12.166708
 H         -18.209370      -59.606541      -14.984677
 H         -19.809822      -59.361408      -15.775145
 H         -20.154995      -60.597210      -13.849614
 H         -19.003189      -59.673744      -12.841766
