20
 generated by VMD
 C         -12.599682      -27.371178       -4.722931
 N         -13.457537      -28.086718       -4.683087
 H         -10.641438      -30.036198       -2.654342
 H         -10.769376      -28.462687       -3.416674
 C         -10.043605      -29.327408       -3.200611
 C          -9.472487      -30.141060       -4.387789
 C          -8.889688      -28.774982       -2.404391
 C          -8.587177      -29.167585       -5.236202
 C          -8.041704      -27.861185       -3.182141
 C          -7.487414      -28.583639       -4.441723
 H         -10.255594      -30.711908       -4.887665
 H          -8.763806      -30.961479       -4.073100
 H          -9.368516      -28.238676       -1.590278
 H          -8.316139      -29.574013       -2.046715
 H          -9.315146      -28.404490       -5.628863
 H          -8.179790      -29.635334       -6.196694
 H          -7.252203      -27.434038       -2.580805
 H          -8.589847      -27.007067       -3.610248
 H          -6.843287      -27.864347       -4.963428
 H          -6.834710      -29.338114       -4.106832
