20
 generated by VMD
 C         -38.321327     -109.665558      -36.480534
 N         -37.634411     -109.024940      -35.828819
 H         -41.535000     -111.116112      -37.344826
 H         -38.938747     -110.346603      -37.128128
 C         -41.639942     -111.538010      -36.334721
 C         -42.066010     -112.996414      -36.276505
 C         -41.937500     -110.761322      -35.119602
 C         -42.045197     -113.653343      -34.843884
 C         -42.010414     -111.508705      -33.692776
 C         -42.733479     -112.748238      -33.928001
 H         -41.441723     -113.604858      -36.919388
 H         -43.057613     -113.112823      -36.834881
 H         -41.215431     -109.896133      -34.883854
 H         -42.996960     -110.449432      -35.265083
 H         -41.042137     -113.760361      -34.493065
 H         -42.591522     -114.615974      -34.800823
 H         -42.423267     -110.840431      -32.989006
 H         -41.034359     -111.745384      -33.411167
 H         -42.879642     -113.288246      -33.037643
 H         -43.809189     -112.675018      -34.398239
