20
 generated by VMD
 C          -2.538613       -8.701721       -0.510376
 N          -1.463291       -8.448930       -0.195265
 H          -3.214336       -9.691378        2.870298
 H          -1.891614      -10.692539        3.464055
 C          -2.938784      -10.637688        3.200807
 C          -3.297870      -11.649527        2.060076
 C          -3.752757      -10.929875        4.433840
 C          -3.320235      -13.141036        2.519114
 C          -3.686463      -12.406400        4.961030
 C          -4.153906      -13.295553        3.781382
 H          -2.690642      -11.462202        1.191318
 H          -4.324821      -11.368701        1.829034
 H          -3.412997      -10.298344        5.262977
 H          -4.762162      -10.604761        4.367414
 H          -2.286721      -13.411592        2.600950
 H          -3.715094      -13.660438        1.683588
 H          -4.249052      -12.545547        5.933412
 H          -2.609617      -12.703871        5.186140
 H          -4.323097      -14.357767        4.079276
 H          -5.148238      -12.953044        3.427720
