20
 generated by VMD
 C         -57.435509     -162.328354      -56.237106
 N         -57.158382     -162.181915      -57.318733
 H         -59.647835     -165.078934      -55.051910
 H         -57.650146     -162.482666      -55.208466
 C         -60.658543     -164.690567      -54.824631
 C         -60.928619     -164.357635      -53.364147
 C         -61.742058     -164.590683      -55.830013
 C         -62.036297     -163.394485      -53.024822
 C         -62.800995     -163.602417      -55.457726
 C         -63.206772     -163.777924      -53.972336
 H         -60.037144     -163.907486      -52.836010
 H         -61.142708     -165.348145      -52.865059
 H         -61.268909     -164.174347      -56.696144
 H         -62.236916     -165.534668      -56.078152
 H         -61.745655     -162.362274      -53.365768
 H         -62.262424     -163.252899      -51.882603
 H         -63.703899     -163.876282      -56.025642
 H         -62.523808     -162.612000      -55.611423
 H         -64.013611     -163.146271      -53.665535
 H         -63.500214     -164.829758      -53.803234
