20
 generated by VMD
 C         -78.041527     -204.104202      -69.982079
 N         -79.177170     -203.744537      -69.996330
 H         -76.153236     -202.961212      -67.859871
 H         -76.966934     -204.439133      -69.868317
 C         -75.442497     -202.602127      -68.601616
 C         -75.935158     -201.545135      -69.564728
 C         -74.310089     -203.457245      -68.963692
 C         -74.874092     -201.321686      -70.736618
 C         -73.168968     -202.606476      -69.385803
 C         -73.420769     -201.466141      -70.329002
 H         -76.170319     -200.592773      -69.032898
 H         -76.814026     -201.736420      -70.107948
 H         -73.950523     -204.082718      -68.136765
 H         -74.672043     -204.188202      -69.678474
 H         -75.123207     -200.410004      -71.295250
 H         -75.042648     -202.204926      -71.405968
 H         -72.442062     -203.159790      -69.966820
 H         -72.698830     -202.239380      -68.497993
 H         -73.223587     -200.594604      -69.663467
 H         -72.623497     -201.449509      -71.170212
