20
 generated by VMD
 C         -28.008196      -84.964081      -26.677404
 N         -27.387590      -85.950645      -26.556053
 H         -31.471214      -84.865845      -25.766644
 H         -28.397085      -84.027626      -26.753410
 C         -32.130116      -85.795998      -25.756929
 C         -32.418190      -86.363548      -24.371073
 C         -32.120983      -86.704704      -26.947443
 C         -33.785053      -87.048950      -24.429874
 C         -33.427074      -87.527130      -26.912161
 C         -33.721985      -88.151779      -25.485653
 H         -32.383606      -85.669151      -23.492556
 H         -31.571695      -87.040207      -24.116814
 H         -32.045387      -86.117867      -27.937548
 H         -31.264465      -87.389297      -26.815834
 H         -34.619473      -86.232635      -24.520140
 H         -34.085400      -87.265366      -23.400311
 H         -33.412476      -88.262321      -27.671968
 H         -34.291870      -86.852455      -27.192591
 H         -34.719822      -88.664986      -25.433807
 H         -32.873348      -88.808739      -25.324955
