20
 generated by VMD
 C         -28.203760      -73.761620      -18.327709
 N         -29.097198      -73.356224      -17.659910
 H         -25.408779      -72.137230      -18.677156
 H         -27.643385      -73.994240      -19.140604
 C         -25.422354      -72.010490      -19.810545
 C         -24.487068      -72.878456      -20.656940
 C         -25.865967      -70.644531      -20.421953
 C         -25.286694      -73.105057      -21.962231
 C         -26.278477      -70.734184      -21.968645
 C         -25.523191      -71.879562      -22.799612
 H         -24.270067      -73.856880      -20.254887
 H         -23.605526      -72.353531      -20.752266
 H         -26.713903      -70.376076      -19.834028
 H         -25.017839      -69.956070      -20.173161
 H         -26.250153      -73.522781      -21.830984
 H         -24.726791      -73.768951      -22.603527
 H         -25.984598      -69.793304      -22.479095
 H         -27.356510      -70.987030      -22.077879
 H         -26.108587      -72.089836      -23.750109
 H         -24.641798      -71.459755      -23.252600
