20
 generated by VMD
 C         -63.618053     -174.733551      -56.216774
 N         -62.637138     -175.300766      -56.385910
 H         -66.402023     -173.268356      -58.270996
 H         -64.576149     -174.236496      -56.064846
 C         -65.562325     -172.612228      -58.693695
 C         -65.747841     -171.074356      -58.473053
 C         -64.567390     -173.101990      -59.787727
 C         -64.315735     -170.611237      -58.109489
 C         -63.297905     -172.250549      -59.703922
 C         -63.449348     -170.827087      -59.253254
 H         -66.534157     -170.775925      -57.815479
 H         -65.998169     -170.543106      -59.538712
 H         -64.284500     -174.217361      -59.810673
 H         -65.007416     -172.979111      -60.821697
 H         -64.031296     -171.119217      -57.124363
 H         -64.401932     -169.504379      -57.916634
 H         -62.820438     -172.183075      -60.683140
 H         -62.699669     -172.799744      -58.958462
 H         -62.419861     -170.522949      -59.005753
 H         -63.763248     -170.260406      -60.206192
