20
 generated by VMD
 C         -11.773225      -41.408527       -6.481373
 N         -11.036141      -42.262753       -6.458823
 H         -14.732550      -42.436810       -8.274225
 H         -15.212255      -41.218643       -9.620651
 C         -15.288929      -42.190861       -9.164230
 C         -16.782505      -42.342705       -8.821496
 C         -14.655634      -43.107384      -10.229449
 C         -17.605499      -42.492779      -10.115859
 C         -15.590886      -43.144619      -11.475599
 C         -17.003731      -43.587757      -11.021462
 H         -17.092306      -41.508625       -8.218407
 H         -17.066870      -43.141899       -8.122354
 H         -13.675923      -42.762077      -10.486197
 H         -14.467978      -44.137497       -9.862301
 H         -17.659613      -41.564678      -10.692234
 H         -18.615877      -42.646538       -9.757543
 H         -15.249537      -43.974361      -12.173584
 H         -15.625703      -42.178631      -11.973060
 H         -17.653297      -43.715160      -11.908839
 H         -16.887411      -44.556240      -10.451926
