20
 generated by VMD
 C         -60.425598     -170.036133      -55.104244
 N         -59.279118     -169.944504      -55.430771
 H         -63.110115     -170.700577      -56.656334
 H         -61.438904     -170.163147      -54.721024
 C         -63.426933     -169.693146      -57.040535
 C         -62.483540     -169.033844      -57.941059
 C         -64.173363     -168.753891      -56.125137
 C         -63.059151     -167.868118      -58.790215
 C         -64.862587     -167.559189      -56.907028
 C         -63.740471     -166.859268      -57.814434
 H         -62.150547     -169.826447      -58.497490
 H         -61.555622     -168.567490      -57.359985
 H         -64.902061     -169.267822      -55.631847
 H         -63.653061     -168.230301      -55.373535
 H         -63.731766     -168.279984      -59.640411
 H         -62.202503     -167.392029      -59.281689
 H         -65.281334     -166.888000      -56.145817
 H         -65.683182     -167.931351      -57.387566
 H         -64.230019     -165.987244      -58.308681
 H         -62.886158     -166.509338      -57.212166
