20
 generated by VMD
 C         -56.131851     -150.167435      -47.265778
 N         -57.116356     -150.232224      -46.669342
 H         -53.327141     -147.869293      -47.486607
 H         -55.257980     -149.899078      -47.878841
 C         -53.796608     -147.653595      -48.428226
 C         -53.099056     -148.161331      -49.748516
 C         -54.605663     -146.340332      -48.430721
 C         -54.215519     -148.199326      -50.858070
 C         -55.446938     -146.348572      -49.834164
 C         -54.577522     -146.731583      -51.071739
 H         -52.659630     -149.301682      -49.704910
 H         -52.205376     -147.586090      -49.868416
 H         -55.169506     -146.036972      -47.499557
 H         -54.017056     -145.497696      -48.575294
 H         -55.042912     -148.880707      -50.565025
 H         -53.769398     -148.780167      -51.691212
 H         -55.884300     -145.362640      -50.015617
 H         -56.282154     -147.014359      -49.697372
 H         -55.183571     -146.614166      -52.023731
 H         -53.675243     -146.138840      -51.290676
