20
 generated by VMD
 C         -32.453144      -95.608383      -25.550520
 N         -33.223812      -95.435623      -24.697824
 H         -34.088417      -94.099808      -27.569321
 H         -31.778961      -95.922356      -26.255230
 C         -34.348228      -93.897644      -28.554790
 C         -35.821072      -93.590508      -28.752277
 C         -33.355869      -93.420059      -29.633957
 C         -36.075169      -92.291092      -29.523045
 C         -33.711449      -92.075684      -30.316463
 C         -35.124336      -91.946251      -30.709013
 H         -36.467968      -93.636841      -27.848133
 H         -36.278519      -94.253471      -29.417032
 H         -32.331657      -93.394226      -29.204176
 H         -33.276936      -94.207100      -30.366022
 H         -35.999363      -91.458473      -28.868954
 H         -37.127216      -92.345840      -29.898672
 H         -33.141533      -92.021935      -31.308960
 H         -33.441216      -91.262154      -29.617853
 H         -35.535553      -91.013054      -31.250633
 H         -35.227158      -92.812973      -31.465631
