20
 generated by VMD
 C         -76.037064     -202.690231      -66.422104
 N         -76.869507     -203.072250      -65.671082
 H         -75.669708     -200.339539      -68.951195
 H         -75.336533     -202.372665      -67.172470
 C         -74.811531     -199.622498      -69.009506
 C         -74.828362     -198.244064      -68.445198
 C         -73.779144     -200.096756      -69.983185
 C         -73.469147     -197.729965      -68.567741
 C         -73.179192     -198.984558      -70.836586
 C         -72.757721     -197.830383      -69.889725
 H         -75.193436     -198.275345      -67.406265
 H         -75.451515     -197.645935      -68.977966
 H         -73.065651     -200.648911      -69.428032
 H         -74.200928     -200.749405      -70.678070
 H         -72.842377     -198.373688      -67.920395
 H         -73.424042     -196.622559      -68.269402
 H         -73.991333     -198.797882      -71.550087
 H         -72.357208     -199.286545      -71.552628
 H         -71.603981     -197.995407      -69.716080
 H         -72.921684     -196.935074      -70.484810
