20
 generated by VMD
 C         -27.909754      -86.616402      -26.861029
 N         -28.027733      -85.585464      -26.382278
 H         -30.939123      -85.870468      -25.330099
 H         -27.666136      -87.530342      -27.220430
 C         -31.893358      -86.451424      -25.604492
 C         -32.728508      -86.854630      -24.475458
 C         -32.024883      -87.112190      -26.931616
 C         -34.121189      -87.298744      -24.791727
 C         -33.442429      -87.415627      -27.224428
 C         -34.059277      -88.255089      -26.032459
 H         -32.873196      -86.063591      -23.718489
 H         -32.247246      -87.801552      -24.019716
 H         -31.567038      -86.440300      -27.708719
 H         -31.407721      -87.981781      -26.909384
 H         -34.670513      -86.325882      -24.913628
 H         -34.382572      -87.868828      -23.936790
 H         -33.530403      -88.093819      -28.076017
 H         -34.069714      -86.478310      -27.372385
 H         -35.096989      -88.734970      -26.084829
 H         -33.343994      -89.167717      -25.880949
