20
 generated by VMD
 C          -1.154496      -13.269449        0.929493
 N          -0.438891      -13.064451        0.073210
 H          -4.539442      -13.000780        1.728842
 H          -5.868769      -13.524525        0.627568
 C          -5.185441      -13.845920        1.418309
 C          -6.004780      -14.323385        2.605619
 C          -4.337686      -14.966119        0.854594
 C          -6.946306      -15.468941        2.086331
 C          -5.211955      -16.189037        0.437094
 C          -6.240732      -16.654659        1.536208
 H          -6.579617      -13.488715        2.934085
 H          -5.363482      -14.700483        3.401965
 H          -3.853739      -14.590332       -0.005995
 H          -3.627707      -15.196493        1.574447
 H          -7.615505      -15.003287        1.309352
 H          -7.575498      -15.755659        2.941212
 H          -4.545084      -16.993597        0.097868
 H          -5.843977      -15.912608       -0.463039
 H          -6.926017      -17.347958        1.065880
 H          -5.629102      -17.133312        2.274807
