20
 generated by VMD
 C          -1.876536       -9.200634        0.931108
 N          -1.704009       -9.730654       -0.002745
 H          -2.675392      -11.986594        1.981073
 H          -3.465207      -12.224374        3.545357
 C          -3.402709      -12.598765        2.501300
 C          -2.949071      -14.037863        2.516103
 C          -4.768322      -12.519878        1.780154
 C          -3.910136      -14.931954        3.224407
 C          -5.824540      -13.499390        2.394276
 C          -5.243077      -14.877752        2.540909
 H          -1.991268      -13.998975        3.093558
 H          -2.764901      -14.256678        1.498208
 H          -5.229279      -11.515633        1.892351
 H          -4.733405      -12.771879        0.699788
 H          -3.929408      -14.536942        4.212449
 H          -3.469525      -15.928236        3.297685
 H          -6.690767      -13.542550        1.698829
 H          -6.134212      -13.118954        3.366189
 H          -5.905332      -15.647724        2.990409
 H          -5.033236      -15.264428        1.503205
