20
 generated by VMD
 C          -9.594678      -25.044525        0.657501
 N         -10.608565      -25.493740        0.871784
 H          -6.279276      -23.448656       -0.855608
 H          -7.951173      -22.977514       -1.208586
 C          -6.958074      -23.242001       -1.674343
 C          -7.119050      -24.640350       -2.334751
 C          -6.361686      -22.294502       -2.701033
 C          -8.130892      -24.420610       -3.470144
 C          -7.311772      -22.083971       -3.848689
 C          -7.559379      -23.403616       -4.478788
 H          -7.552857      -25.221994       -1.554384
 H          -6.193477      -25.033260       -2.718518
 H          -6.252875      -21.266806       -2.303507
 H          -5.369516      -22.573771       -3.019896
 H          -9.107207      -23.987953       -3.077219
 H          -8.294055      -25.385628       -3.939462
 H          -6.803538      -21.465479       -4.614779
 H          -8.209782      -21.529167       -3.565266
 H          -8.231531      -23.274965       -5.378042
 H          -6.684196      -23.824900       -4.973034
