20
 generated by VMD
 C         -19.204672      -59.873276      -17.110472
 N         -18.942749      -60.774807      -16.433208
 H         -22.796278      -61.397968      -17.921213
 H         -19.362020      -58.936909      -17.581001
 C         -23.452324      -62.153587      -17.390453
 C         -24.411827      -63.010021      -18.131617
 C         -23.229284      -62.367672      -15.954381
 C         -24.054670      -64.496063      -17.938354
 C         -23.475615      -63.794689      -15.511502
 C         -24.086216      -64.861694      -16.427427
 H         -24.345547      -62.826973      -19.199186
 H         -25.444391      -62.781498      -18.011078
 H         -22.203295      -62.083397      -15.694376
 H         -23.792652      -61.675838      -15.362306
 H         -22.988789      -64.439552      -18.364578
 H         -24.500751      -65.215103      -18.622259
 H         -24.038485      -63.831791      -14.515577
 H         -22.390337      -64.176201      -15.531521
 H         -23.547169      -65.756241      -16.218838
 H         -25.104292      -65.087349      -16.153414
