20
 generated by VMD
 C         -62.646942     -174.430115      -54.806454
 N         -63.442070     -174.118866      -55.543907
 H         -62.872692     -172.756271      -57.903183
 H         -61.859116     -174.821732      -54.190384
 C         -63.405361     -171.901581      -58.373238
 C         -63.545967     -170.756882      -57.508179
 C         -64.184677     -172.089890      -59.578362
 C         -63.722321     -169.413483      -58.248955
 C         -64.587463     -170.766708      -60.368774
 C         -64.777687     -169.524124      -59.376518
 H         -62.661327     -170.600693      -56.781395
 H         -64.383934     -170.831360      -56.856171
 H         -63.492790     -172.564484      -60.254700
 H         -65.121788     -172.463104      -59.347347
 H         -62.728916     -169.055237      -58.626942
 H         -63.980587     -168.588577      -57.578758
 H         -65.432182     -170.946228      -61.058643
 H         -63.738754     -170.646378      -61.123764
 H         -64.734138     -168.550583      -59.963539
 H         -65.816124     -169.567673      -58.951103
