20
 generated by VMD
 C         -49.988655     -143.339020      -44.593658
 N         -49.171577     -143.441254      -45.469643
 H         -52.025219     -140.807098      -45.554131
 H         -50.580257     -143.078247      -43.718136
 C         -52.683769     -141.224716      -46.352867
 C         -52.150448     -141.536392      -47.712101
 C         -54.100731     -141.063095      -46.140663
 C         -53.052734     -142.201523      -48.604122
 C         -55.065033     -141.890930      -47.118732
 C         -54.538574     -141.658386      -48.508236
 H         -51.340736     -142.191803      -47.472725
 H         -51.748974     -140.551483      -48.108059
 H         -54.298950     -141.389038      -45.115192
 H         -54.379677     -140.037231      -46.278156
 H         -52.975128     -143.416626      -48.524002
 H         -52.783142     -141.948685      -49.678974
 H         -56.024418     -141.558884      -46.730564
 H         -54.984055     -143.028473      -47.048653
 H         -55.125229     -142.189728      -49.326607
 H         -54.506897     -140.535400      -48.763863
