20
 generated by VMD
 C         -40.403809     -104.525993      -36.157616
 N         -39.488174     -104.852623      -36.826206
 H         -40.724705     -107.377571      -34.688877
 H         -41.143955     -104.126991      -35.480236
 C         -39.956055     -107.798912      -34.077873
 C         -38.867744     -106.952774      -33.573292
 C         -39.904499     -109.192589      -33.599953
 C         -38.562019     -107.013588      -32.105526
 C         -39.936977     -109.145569      -32.014366
 C         -38.737011     -108.453575      -31.499514
 H         -39.098145     -105.865128      -33.760372
 H         -37.952908     -107.135933      -34.261124
 H         -40.750896     -109.930077      -33.887314
 H         -38.922863     -109.557571      -34.018246
 H         -39.279110     -106.385269      -31.565195
 H         -37.526089     -106.610374      -31.921030
 H         -39.959110     -110.214165      -31.508173
 H         -40.759357     -108.656830      -31.495235
 H         -38.836143     -108.163628      -30.443527
 H         -37.787563     -109.096626      -31.518116
