20
 generated by VMD
 C         -67.022163     -189.659637      -66.519905
 N         -66.220314     -189.512009      -67.370338
 H         -70.281914     -190.574112      -65.674690
 H         -67.660812     -189.628021      -65.594788
 C         -70.852493     -190.084641      -64.841843
 C         -71.928345     -190.862198      -64.194244
 C         -70.469276     -188.860367      -64.202797
 C         -73.193733     -189.912277      -64.087097
 C         -71.580208     -187.925049      -63.754803
 C         -72.801819     -188.771149      -63.105232
 H         -71.695442     -191.210464      -63.257702
 H         -72.063118     -191.721893      -64.780746
 H         -69.748802     -189.119949      -63.389034
 H         -69.814156     -188.393311      -64.898750
 H         -74.079659     -190.497849      -63.681553
 H         -73.331802     -189.456024      -65.044037
 H         -71.914253     -187.430313      -64.684395
 H         -71.373795     -187.054871      -63.032894
 H         -72.570755     -189.246445      -62.184711
 H         -73.593437     -188.077469      -62.990334
