20
 generated by VMD
 C         -11.965224      -25.711445       -0.198464
 N         -13.004996      -26.131662       -0.315799
 H          -9.556348      -26.784540       -2.756553
 H          -9.545404      -25.760267       -4.217620
 C          -8.864748      -26.224628       -3.486749
 C          -7.810093      -27.243864       -3.917474
 C          -8.212308      -25.093113       -2.716244
 C          -6.823297      -26.425617       -4.886225
 C          -7.172024      -24.314531       -3.547502
 C          -6.109477      -25.354147       -4.024481
 H          -8.333215      -28.015129       -4.568731
 H          -7.280984      -27.752241       -3.048292
 H          -8.983280      -24.408083       -2.426924
 H          -7.680917      -25.521761       -1.809080
 H          -7.343791      -26.062052       -5.795185
 H          -6.014254      -27.120588       -5.207330
 H          -6.704639      -23.517221       -2.908174
 H          -7.627602      -23.712891       -4.366786
 H          -5.394437      -24.781462       -4.616922
 H          -5.448648      -25.716856       -3.215715
