20
 generated by VMD
 C         -41.169014     -119.331688      -34.711216
 N         -40.289509     -119.237434      -35.440422
 H         -43.479607     -117.605995      -36.349922
 H         -41.932945     -119.133667      -34.059181
 C         -43.946598     -117.651627      -37.360569
 C         -42.959476     -117.758034      -38.510941
 C         -45.238174     -116.964935      -37.562984
 C         -43.745216     -118.499115      -39.609890
 C         -45.929783     -117.573807      -38.817783
 C         -45.037643     -117.689774      -40.033543
 H         -42.200851     -118.422676      -38.029560
 H         -42.536919     -116.866295      -38.943138
 H         -45.880798     -117.226097      -36.765980
 H         -45.078453     -115.844841      -37.647964
 H         -44.188549     -119.462624      -39.287796
 H         -43.069118     -118.647995      -40.439426
 H         -46.745026     -116.866234      -39.064201
 H         -46.137814     -118.593575      -38.676472
 H         -45.544750     -118.249626      -40.786366
 H         -44.728008     -116.610619      -40.378838
