20
 generated by VMD
 C         -12.891222      -28.062626       -4.046041
 N         -13.863810      -27.622849       -4.350089
 H         -10.555918      -29.289398       -2.683830
 H         -10.307740      -27.822451       -3.555733
 C          -9.813327      -28.673979       -3.193934
 C          -9.379285      -29.529722       -4.411482
 C          -8.654963      -28.118536       -2.427560
 C          -8.278393      -28.886850       -5.184776
 C          -7.630726      -27.495230       -3.261176
 C          -7.139639      -28.424988       -4.301706
 H         -10.252235      -29.865112       -4.928187
 H          -9.017899      -30.567989       -4.036389
 H          -8.968624      -27.466341       -1.659376
 H          -8.121511      -28.877518       -1.888921
 H          -8.631890      -27.974703       -5.769875
 H          -7.814444      -29.526648       -5.966254
 H          -6.830214      -27.072386       -2.672817
 H          -8.057071      -26.561979       -3.699929
 H          -6.400629      -28.003941       -4.961340
 H          -6.832662      -29.381668       -3.907259
