20
 generated by VMD
 C         -57.248337     -163.143936      -56.479954
 N         -57.162476     -162.323013      -57.301914
 H         -59.678928     -165.061142      -54.879036
 H         -57.226498     -163.885040      -55.712692
 C         -60.655025     -164.674057      -54.747887
 C         -61.293758     -164.817078      -53.355309
 C         -61.513145     -164.452286      -55.941708
 C         -62.455700     -163.786621      -53.170242
 C         -62.928143     -163.794449      -55.601864
 C         -63.490616     -164.058624      -54.195099
 H         -60.524757     -164.696335      -52.557262
 H         -61.735565     -165.833771      -53.486183
 H         -60.956879     -163.800629      -56.732136
 H         -61.773567     -165.440033      -56.340687
 H         -62.123344     -162.788223      -53.223316
 H         -62.850288     -163.783005      -52.132755
 H         -63.684517     -164.293701      -56.317482
 H         -62.913841     -162.649933      -55.750004
 H         -64.437416     -163.466446      -53.994514
 H         -63.823395     -165.182022      -54.176334
