20
 generated by VMD
 C         -11.570595      -33.501041       -8.736021
 N         -10.487723      -33.539593       -8.945094
 H         -12.443600      -34.722980       -7.472162
 H         -12.622193      -34.798676       -5.718366
 C         -12.702378      -35.449696       -6.621674
 C         -11.593326      -36.515827       -6.393707
 C         -14.058923      -36.008541       -6.896501
 C         -12.043199      -37.595234       -5.410515
 C         -14.421144      -37.145531       -5.918915
 C         -13.403138      -38.239887       -5.763695
 H         -10.696658      -36.036503       -5.933243
 H         -11.337786      -36.930244       -7.356471
 H         -14.787271      -35.177368       -6.788809
 H         -13.975844      -36.388454       -7.939622
 H         -12.318362      -37.058990       -4.488769
 H         -11.351309      -38.398857       -5.154645
 H         -15.314884      -37.571331       -6.220622
 H         -14.510932      -36.681530       -4.898124
 H         -13.760461      -38.992302       -5.033292
 H         -13.173396      -38.701984       -6.669134
