20
 generated by VMD
 C          -5.751703      -21.313364        1.764742
 N          -6.406552      -22.125425        1.385915
 H          -5.181666      -18.968128       -0.925375
 H          -6.028794      -19.974451        0.134737
 C          -5.936532      -19.703447       -0.919319
 C          -5.589727      -20.921984       -1.776865
 C          -7.157212      -18.953249       -1.403252
 C          -6.761661      -21.798656       -2.151348
 C          -8.357660      -19.888357       -1.779287
 C          -7.897531      -21.006500       -2.777651
 H          -4.863739      -21.507196       -1.161881
 H          -5.163861      -20.625952       -2.715283
 H          -7.490681      -18.228144       -0.603169
 H          -6.904685      -18.240129       -2.255249
 H          -7.226773      -22.285782       -1.276927
 H          -6.462742      -22.671284       -2.747003
 H          -9.229074      -19.304514       -2.150742
 H          -8.776540      -20.340387       -0.855218
 H          -8.727222      -21.724234       -2.910845
 H          -7.622147      -20.579601       -3.772403
