20
 generated by VMD
 C          -1.883007      -16.103754        2.014207
 N          -1.818250      -15.300109        2.780897
 H          -4.157840      -16.090393        0.211113
 H          -4.450541      -17.102262       -1.094725
 C          -4.955503      -16.685551       -0.262255
 C          -6.135790      -15.783650       -0.637449
 C          -5.340498      -17.763750        0.748746
 C          -7.398771      -16.571291       -0.975366
 C          -6.491662      -18.589775        0.206852
 C          -7.761748      -17.613995        0.062881
 H          -5.888061      -15.250594       -1.526650
 H          -6.318965      -15.049438        0.177270
 H          -4.450159      -18.385515        0.962803
 H          -5.551542      -17.262434        1.706852
 H          -7.157662      -17.028324       -1.946791
 H          -8.256446      -15.827084       -1.080978
 H          -6.782372      -19.355124        0.917478
 H          -6.310502      -19.073984       -0.798490
 H          -8.676846      -18.182831       -0.149340
 H          -7.899567      -17.140142        1.031035
