20
 generated by VMD
 C         -11.979902      -25.647472       -0.240706
 N         -13.004337      -26.103615       -0.247209
 H          -9.562705      -26.719095       -2.861639
 H          -9.303722      -25.877930       -4.312997
 C          -8.814167      -26.221525       -3.400822
 C          -7.724768      -27.161312       -3.932947
 C          -8.158652      -25.071848       -2.635468
 C          -6.828220      -26.428257       -4.842547
 C          -7.167910      -24.343670       -3.528972
 C          -6.170292      -25.235895       -4.140218
 H          -8.156635      -27.982965       -4.477691
 H          -7.183489      -27.396412       -3.044755
 H          -8.967500      -24.402813       -2.232972
 H          -7.578398      -25.488794       -1.846359
 H          -7.427424      -25.902079       -5.578970
 H          -6.122084      -27.102545       -5.295177
 H          -6.724859      -23.546909       -2.966594
 H          -7.746486      -23.866285       -4.314894
 H          -5.445131      -24.771875       -4.829206
 H          -5.589220      -25.677507       -3.326724
