20
 generated by VMD
 C         -61.536831     -154.862808      -53.646149
 N         -62.199696     -155.558609      -54.291714
 H         -58.273075     -155.348038      -52.004314
 H         -60.909573     -154.301651      -53.005753
 C         -57.374115     -154.951431      -51.586830
 C         -57.371548     -154.304047      -50.245228
 C         -56.105587     -154.896729      -52.397755
 C         -56.036942     -154.801041      -49.502216
 C         -54.794128     -155.309143      -51.677299
 C         -54.779137     -154.611496      -50.338539
 H         -58.263687     -154.677170      -49.797741
 H         -57.318775     -153.178085      -50.246090
 H         -56.161606     -155.417252      -53.354477
 H         -55.995224     -153.834106      -52.641579
 H         -56.185253     -155.908829      -49.414482
 H         -56.087784     -154.151352      -48.654884
 H         -53.948151     -155.066193      -52.301945
 H         -54.923977     -156.408417      -51.477898
 H         -53.899437     -154.926727      -49.841045
 H         -54.681034     -153.438950      -50.410683
