20
 generated by VMD
 C         -40.568619     -104.283829      -36.505238
 N         -39.676296     -104.993889      -36.603535
 H         -39.803486     -107.425056      -35.116405
 H         -41.327106     -103.575623      -36.133091
 C         -39.847191     -107.530571      -34.037449
 C         -38.622753     -106.788925      -33.382530
 C         -40.029667     -108.950066      -33.474468
 C         -38.580444     -106.947792      -31.885500
 C         -39.777325     -109.017479      -32.031631
 C         -38.447388     -108.483612      -31.515322
 H         -38.659050     -105.762398      -33.550674
 H         -37.808571     -107.310326      -33.886475
 H         -41.104347     -109.205528      -33.608566
 H         -39.439640     -109.506119      -34.220627
 H         -39.369316     -106.470398      -31.347540
 H         -37.733727     -106.380791      -31.561811
 H         -39.766758     -110.142212      -31.870476
 H         -40.596504     -108.551834      -31.459621
 H         -38.256252     -108.565636      -30.514927
 H         -37.553959     -108.962509      -32.108025
