20
 generated by VMD
 C         -30.336124      -92.943565      -25.080507
 N         -30.171515      -93.830330      -25.771826
 H         -33.349434      -91.454628      -26.425741
 H         -30.375095      -92.010315      -24.440792
 C         -33.993069      -91.328430      -27.319069
 C         -35.130833      -92.230904      -27.647118
 C         -33.257423      -90.842735      -28.550972
 C         -36.040451      -91.505379      -28.607889
 C         -34.275600      -90.147057      -29.507557
 C         -35.443073      -91.143745      -29.955515
 H         -35.499374      -92.489548      -26.628887
 H         -34.792416      -93.151604      -28.143156
 H         -32.617237      -90.029259      -28.222921
 H         -32.722340      -91.746429      -29.020952
 H         -36.488369      -90.543350      -28.192057
 H         -36.847603      -92.167801      -28.804436
 H         -33.795250      -89.767075      -30.430641
 H         -34.803722      -89.266083      -29.044985
 H         -35.964787      -90.555824      -30.743982
 H         -35.007690      -92.058601      -30.440378
