20
 generated by VMD
 C         -11.753164      -41.665512       -6.153893
 N         -10.834232      -41.795273       -6.785751
 H         -14.638274      -41.412880       -8.389478
 H         -15.583845      -40.748184       -9.960729
 C         -15.252711      -41.632038       -9.292643
 C         -16.635649      -42.164635       -8.751809
 C         -14.621610      -42.755280      -10.117656
 C         -17.623783      -42.554840       -9.867138
 C         -15.521766      -43.079041      -11.308670
 C         -16.936789      -43.490276      -10.903731
 H         -17.083395      -41.392834       -8.122890
 H         -16.465624      -42.942719       -7.981162
 H         -13.666541      -42.513412      -10.482989
 H         -14.417411      -43.642662       -9.510939
 H         -17.984655      -41.635178      -10.348451
 H         -18.543024      -43.028111       -9.507330
 H         -15.046091      -43.951412      -11.912445
 H         -15.604645      -42.203568      -11.917223
 H         -17.601131      -43.561428      -11.783650
 H         -16.807495      -44.497097      -10.445848
