20
 generated by VMD
 C          -3.791759      -18.418524        2.020090
 N          -3.157230      -18.352692        2.938635
 H          -5.643102      -20.757607        0.236250
 H          -6.411484      -21.190285       -1.252078
 C          -6.237207      -20.334555       -0.595948
 C          -5.449633      -19.175070       -1.255315
 C          -7.617977      -19.860048       -0.135410
 C          -6.297220      -18.634350       -2.447038
 C          -8.450792      -19.491323       -1.307268
 C          -7.768675      -18.328680       -2.037047
 H          -4.450365      -19.370934       -1.506670
 H          -5.375238      -18.428436       -0.418243
 H          -8.141246      -20.728216        0.506182
 H          -7.543948      -18.985931        0.621502
 H          -6.240663      -19.314390       -3.349969
 H          -5.768537      -17.683752       -2.791055
 H          -9.406889      -19.141094       -0.914849
 H          -8.688452      -20.283298       -2.063554
 H          -8.397967      -18.023912       -2.889064
 H          -7.831911      -17.482927       -1.357600
