20
 generated by VMD
 C         -20.065880      -52.041206      -10.047661
 N         -20.984772      -51.329334       -9.907751
 H         -18.169046      -49.018219      -10.541790
 H         -19.015650      -52.736668       -9.829120
 C         -17.433880      -49.156666      -11.378626
 C         -16.792488      -50.477612      -11.641869
 C         -17.095194      -47.988750      -12.240152
 C         -16.603962      -50.649220      -13.151052
 C         -17.249798      -48.366356      -13.713651
 C         -16.348806      -49.481056      -14.090693
 H         -17.445602      -51.311115      -11.296715
 H         -15.919694      -50.635899      -11.013157
 H         -17.939407      -47.299313      -12.021586
 H         -16.115131      -47.527012      -12.060507
 H         -17.552645      -50.983353      -13.518747
 H         -16.040695      -51.565269      -13.331718
 H         -17.196455      -47.568111      -14.374375
 H         -18.340645      -48.622501      -13.879951
 H         -16.516493      -49.753891      -15.130581
 H         -15.328516      -49.182880      -13.964610
