20
 generated by VMD
 C         -29.244379      -73.608810      -19.429483
 N         -29.865499      -74.543716      -19.277733
 H         -25.422205      -73.243546      -18.787661
 H         -28.501680      -72.773827      -19.380075
 C         -25.534880      -73.091896      -19.845291
 C         -25.098085      -74.242523      -20.711988
 C         -25.652365      -71.698799      -20.394690
 C         -25.722219      -74.183090      -22.164188
 C         -26.308720      -71.696968      -21.836836
 C         -25.580111      -72.702454      -22.834272
 H         -25.501919      -75.242844      -20.273214
 H         -23.971586      -74.239059      -20.830509
 H         -26.389582      -70.991188      -19.943308
 H         -24.666990      -71.216621      -20.437990
 H         -26.789005      -74.466866      -22.041328
 H         -25.184820      -74.826286      -22.861103
 H         -26.136698      -70.657303      -22.164473
 H         -27.353535      -71.819328      -21.784048
 H         -25.997042      -72.647713      -23.897280
 H         -24.503708      -72.375908      -22.858948
