20
 generated by VMD
 C         -17.699360      -48.298893       -6.853301
 N         -17.115820      -47.407742       -6.556374
 H         -16.372801      -48.685837      -10.528233
 H         -15.514553      -48.719955      -12.015802
 C         -16.242357      -48.083389      -11.469911
 C         -15.665866      -46.691299      -11.140105
 C         -17.582331      -47.925320      -12.233128
 C         -15.434560      -45.939369      -12.430665
 C         -17.536592      -47.066086      -13.460932
 C         -16.776888      -45.786846      -13.156511
 H         -14.812307      -46.756855      -10.492001
 H         -16.452362      -46.149162      -10.572304
 H         -17.881571      -48.969482      -12.578774
 H         -18.363787      -47.508175      -11.536786
 H         -14.735475      -46.499508      -13.051693
 H         -15.031630      -44.939327      -12.210490
 H         -18.600163      -46.920624      -13.724733
 H         -17.079746      -47.445362      -14.301973
 H         -16.656101      -45.228054      -14.059629
 H         -17.411608      -45.271343      -12.467062
