20
 generated by VMD
 C         -29.664192      -89.480942      -25.100056
 N         -29.139479      -89.464836      -26.109573
 H         -31.960878      -91.166153      -27.256964
 H         -30.071844      -89.293518      -24.053452
 C         -32.863365      -90.658356      -27.546110
 C         -34.230797      -91.036064      -27.026134
 C         -32.822674      -89.572716      -28.517130
 C         -35.064316      -89.828018      -26.522532
 C         -33.446423      -88.367554      -27.854620
 C         -34.956459      -88.616577      -27.555204
 H         -34.052818      -91.620949      -26.101002
 H         -34.781063      -91.702087      -27.645733
 H         -31.746706      -89.451889      -28.668100
 H         -33.165298      -89.858284      -29.514971
 H         -34.784374      -89.569740      -25.552349
 H         -36.119209      -90.094765      -26.665550
 H         -33.333336      -87.640335      -28.628344
 H         -33.037117      -88.033562      -26.928095
 H         -35.491768      -87.708267      -27.170799
 H         -35.540260      -89.004700      -28.546738
