20
 generated by VMD
 C         -68.690727     -184.776810      -65.933647
 N         -69.589828     -185.483627      -66.020363
 H         -69.768814     -182.967896      -63.483631
 H         -67.826180     -184.126434      -65.857872
 C         -69.213966     -183.694550      -62.963821
 C         -69.883820     -184.941528      -62.564484
 C         -67.787712     -183.313385      -62.488754
 C         -69.039139     -185.952728      -61.870163
 C         -67.408012     -184.116379      -61.184387
 C         -68.440948     -185.182144      -60.731033
 H         -70.222908     -185.535080      -63.441570
 H         -70.790115     -184.708694      -61.994190
 H         -67.127174     -183.589127      -63.235237
 H         -67.752655     -182.243240      -62.447887
 H         -68.309799     -186.355743      -62.612305
 H         -69.549980     -186.838211      -61.381710
 H         -67.170837     -183.603348      -60.260757
 H         -66.468330     -184.556900      -61.494995
 H         -67.961945     -185.941132      -60.079975
 H         -69.177399     -184.897400      -60.082527
