20
 generated by VMD
 C         -12.811878      -27.481911       -1.862421
 N         -11.714273      -27.242064       -1.884334
 H         -10.321966      -25.948153       -4.538005
 H          -8.799115      -25.880859       -5.423157
 C          -9.275944      -26.282642       -4.501170
 C          -9.052231      -27.782600       -4.421462
 C          -8.706211      -25.477215       -3.358189
 C          -7.550485      -28.067327       -4.242276
 C          -7.242012      -25.777393       -3.228373
 C          -6.993564      -27.267521       -3.089442
 H          -9.423149      -28.313902       -5.233530
 H          -9.668672      -28.082312       -3.516107
 H          -8.902835      -24.422028       -3.515637
 H          -9.184124      -25.861811       -2.430399
 H          -7.082988      -27.735334       -5.161517
 H          -7.310132      -29.112524       -4.223767
 H          -6.682597      -25.252007       -2.435436
 H          -6.625921      -25.527533       -4.087207
 H          -5.972808      -27.485197       -2.808437
 H          -7.540186      -27.551470       -2.148503
