20
 generated by VMD
 C         -50.707970     -129.146378      -42.773846
 N         -50.492424     -128.228882      -42.124760
 H         -48.485107     -127.694344      -40.272861
 H         -50.852947     -129.932343      -43.484444
 C         -47.399296     -127.613403      -40.493946
 C         -46.267426     -128.535599      -40.174736
 C         -47.209476     -126.222084      -41.184788
 C         -44.994438     -128.238358      -40.998177
 C         -45.838280     -126.238922      -42.039543
 C         -44.677975     -126.819908      -41.282986
 H         -46.621002     -129.611755      -40.269997
 H         -46.087715     -128.476257      -39.108326
 H         -48.120121     -126.057152      -41.840244
 H         -47.136787     -125.465363      -40.467495
 H         -45.273266     -128.719254      -41.978436
 H         -44.219101     -128.611771      -40.286724
 H         -45.727970     -125.228172      -42.405258
 H         -46.108273     -126.878860      -42.939430
 H         -43.897728     -126.719734      -41.968067
 H         -44.462154     -126.206497      -40.425419
