20
 generated by VMD
 C         -45.630505     -123.561127      -35.472225
 N         -46.153103     -124.555038      -35.385410
 H         -44.916832     -122.539322      -38.541576
 H         -44.941719     -122.682533      -35.494938
 C         -44.717239     -121.617180      -39.034683
 C         -43.379017     -121.396194      -39.653965
 C         -45.832401     -120.635422      -39.521683
 C         -43.426907     -121.124504      -41.126038
 C         -45.806850     -120.446671      -41.007988
 C         -44.509640     -120.142937      -41.589844
 H         -42.640713     -122.144264      -39.488747
 H         -42.823704     -120.571228      -39.089359
 H         -46.843784     -121.037636      -39.190434
 H         -45.764763     -119.682556      -39.024048
 H         -43.437767     -122.078781      -41.732265
 H         -42.470932     -120.830765      -41.423222
 H         -46.534039     -119.688049      -41.208908
 H         -46.114555     -121.333733      -41.524677
 H         -44.591923     -120.081772      -42.661110
 H         -44.175575     -119.221191      -41.084763
