20
 generated by VMD
 C         -21.518991      -55.980438      -17.520557
 N         -20.667046      -55.288914      -17.991461
 H         -23.384281      -58.686131      -15.384733
 H         -22.495323      -56.647640      -17.179934
 C         -22.413202      -59.157894      -15.096920
 C         -21.729271      -58.955143      -13.710693
 C         -21.745001      -59.989182      -16.153288
 C         -20.901222      -60.106155      -13.227171
 C         -20.239380      -60.426968      -15.633904
 C         -20.472464      -61.194122      -14.354197
 H         -22.469696      -58.587559      -12.974127
 H         -20.892427      -58.190250      -13.777433
 H         -22.253386      -60.938511      -16.348709
 H         -21.553619      -59.379627      -17.040617
 H         -21.398060      -60.554779      -12.411603
 H         -19.959478      -59.738522      -12.804873
 H         -19.480103      -59.609863      -15.477222
 H         -19.970465      -61.218819      -16.345850
 H         -21.058258      -62.120945      -14.349900
 H         -19.496767      -61.518574      -13.905232
