20
 generated by VMD
 C         -43.900955     -121.501884      -36.152416
 N         -43.725616     -120.535873      -35.492950
 H         -44.944805     -122.460861      -39.507828
 H         -44.305565     -122.330086      -36.629135
 C         -44.677193     -121.371338      -39.305092
 C         -43.418415     -120.853096      -39.779602
 C         -45.829628     -120.559708      -38.889889
 C         -43.292126     -119.411888      -40.160023
 C         -45.807190     -119.144859      -39.401482
 C         -44.314796     -118.598389      -39.387222
 H         -43.023716     -121.543732      -40.560886
 H         -42.711647     -121.058449      -39.001617
 H         -46.778194     -121.010864      -39.257790
 H         -45.967377     -120.496124      -37.846153
 H         -43.680126     -119.267853      -41.198566
 H         -42.230907     -119.076950      -40.278065
 H         -46.494778     -118.493950      -38.871212
 H         -46.075001     -118.997635      -40.470600
 H         -44.286793     -117.510452      -39.733276
 H         -44.076740     -118.622726      -38.285309
