20
 generated by VMD
 C         -29.388433      -89.707863      -25.724323
 N         -29.515209      -88.566681      -25.412224
 H         -31.487244      -90.622284      -27.388414
 H         -29.459774      -90.789673      -25.898411
 C         -32.464252      -90.121803      -27.368116
 C         -33.576748      -90.445625      -26.344355
 C         -32.994114      -89.342781      -28.577892
 C         -34.448696      -89.299835      -26.092293
 C         -33.843204      -88.119637      -28.314426
 C         -34.858170      -88.471512      -27.298443
 H         -33.072716      -90.881378      -25.440453
 H         -34.180252      -91.386993      -26.700565
 H         -32.129128      -88.993042      -29.154255
 H         -33.447475      -90.189491      -29.075460
 H         -33.886864      -88.592926      -25.469662
 H         -35.302971      -89.699570      -25.601139
 H         -34.293362      -87.649338      -29.265083
 H         -33.159435      -87.379471      -27.866032
 H         -35.435341      -87.616043      -26.713425
 H         -35.729034      -88.980270      -27.801079
