20
 generated by VMD
 C         -68.426857     -179.822495      -59.022614
 N         -68.208031     -180.090805      -60.147114
 H         -67.341072     -176.494537      -59.624043
 H         -68.583702     -179.640320      -57.936722
 C         -66.355804     -176.879074      -60.109486
 C         -66.094673     -176.389542      -61.467220
 C         -65.324577     -177.162384      -59.049435
 C         -65.012115     -175.294052      -61.332344
 C         -64.184441     -176.120789      -59.085968
 C         -63.768013     -175.746017      -60.585678
 H         -67.072945     -176.128281      -61.837517
 H         -65.712524     -177.199997      -62.020042
 H         -65.652122     -177.297470      -57.966293
 H         -64.828667     -178.077469      -59.327240
 H         -65.689560     -174.435699      -60.845909
 H         -64.774368     -174.937820      -62.327068
 H         -63.322083     -176.307114      -58.526638
 H         -64.580208     -175.185776      -58.732647
 H         -63.056366     -174.949448      -60.595974
 H         -63.307163     -176.624435      -60.902863
