20
 generated by VMD
 C          -7.476613      -23.486799        1.860023
 N          -7.541284      -22.909340        2.798596
 H          -8.966040      -23.498430       -1.678911
 H          -9.371282      -22.260883       -2.810515
 C          -8.516080      -22.798609       -2.337152
 C          -7.716728      -23.568544       -3.278921
 C          -7.852636      -21.738298       -1.563666
 C          -6.930408      -22.751856       -4.240282
 C          -7.085844      -20.846962       -2.540162
 C          -6.194516      -21.662848       -3.499350
 H          -8.266478      -24.354847       -3.869557
 H          -7.131507      -24.227686       -2.697788
 H          -8.652293      -21.179510       -1.013168
 H          -7.091639      -22.169516       -0.915337
 H          -7.700396      -22.249704       -4.883018
 H          -6.204607      -23.325771       -4.834260
 H          -6.420414      -20.139408       -2.009635
 H          -7.782378      -20.383451       -3.242171
 H          -5.739257      -20.973486       -4.195201
 H          -5.457751      -22.105385       -2.888858
