20
 generated by VMD
 C         -11.321934      -40.858929       -7.461491
 N         -11.657836      -40.438011       -6.495990
 H         -13.725357      -40.749344       -8.458467
 H         -15.019966      -40.048256       -9.498779
 C         -14.669619      -40.969852       -9.015085
 C         -15.693742      -41.685284       -8.081456
 C         -14.381605      -41.787239      -10.303475
 C         -16.965925      -42.109741       -8.825261
 C         -15.620463      -42.361492      -10.984280
 C         -16.663345      -43.020603      -10.004220
 H         -15.857688      -41.091564       -7.221430
 H         -15.157827      -42.519115       -7.709074
 H         -13.727369      -41.285091      -10.963195
 H         -13.791856      -42.681938      -10.109470
 H         -17.603086      -41.284401       -9.147738
 H         -17.693502      -42.633789       -8.142458
 H         -15.322642      -43.241512      -11.693845
 H         -16.146425      -41.624996      -11.523276
 H         -17.583284      -43.310581      -10.577779
 H         -16.137903      -43.908066       -9.548094
