20
 generated by VMD
 C         -49.680473     -127.360191      -39.953995
 N         -49.079365     -126.711845      -39.206638
 H         -47.160431     -126.769432      -41.717014
 H         -50.479561     -127.839081      -40.509277
 C         -46.317501     -126.021866      -41.471226
 C         -45.277889     -126.444374      -40.453972
 C         -46.815403     -124.615036      -41.313408
 C         -44.109852     -125.550705      -40.512470
 C         -45.649193     -123.689934      -41.343727
 C         -44.310333     -123.990280      -40.502632
 H         -44.992275     -127.545204      -40.824184
 H         -45.623821     -126.527939      -39.425579
 H         -47.650883     -124.408348      -41.983646
 H         -47.389359     -124.405251      -40.400826
 H         -43.569244     -125.751701      -41.471409
 H         -43.372105     -125.795876      -39.737953
 H         -45.734150     -122.627983      -41.362091
 H         -45.261253     -123.794754      -42.296650
 H         -43.400421     -123.569550      -40.971458
 H         -44.411091     -123.581665      -39.468727
