20
 generated by VMD
 C         -59.922886     -152.950027      -51.106895
 N         -60.732754     -152.350830      -51.740997
 H         -56.971169     -153.199829      -49.190025
 H         -59.249813     -153.430176      -50.363239
 C         -56.248081     -152.720306      -49.832172
 C         -54.735401     -152.978470      -49.481331
 C         -56.602680     -151.311417      -50.146538
 C         -53.806400     -152.495453      -50.616535
 C         -55.548832     -150.833054      -51.269787
 C         -54.032734     -151.070709      -50.849659
 H         -54.593567     -154.082565      -49.054062
 H         -54.515816     -152.389481      -48.568966
 H         -57.559147     -151.222748      -50.723579
 H         -56.612923     -150.672012      -49.265381
 H         -53.861492     -153.036407      -51.567154
 H         -52.689938     -152.639755      -50.402054
 H         -55.668022     -149.735275      -51.347836
 H         -55.895332     -151.401764      -52.153164
 H         -53.436920     -150.685181      -51.669758
 H         -53.685894     -150.371185      -50.066216
