20
 generated by VMD
 C         -57.887032     -167.857040      -55.247719
 N         -56.848789     -168.246841      -54.939766
 H         -60.933247     -166.311615      -55.769806
 H         -58.903156     -167.489288      -55.412312
 C         -62.001221     -166.407410      -55.953823
 C         -62.452934     -167.278000      -57.105106
 C         -62.975159     -165.302841      -55.575493
 C         -64.013519     -167.401154      -57.361401
 C         -64.441422     -165.491699      -55.794743
 C         -64.697670     -166.043884      -57.178627
 H         -62.154140     -168.315445      -57.144203
 H         -61.944153     -166.975845      -58.025478
 H         -62.795135     -165.024109      -54.493244
 H         -62.584023     -164.462463      -56.245811
 H         -64.422859     -168.133636      -56.583813
 H         -64.251053     -167.765701      -58.378632
 H         -64.998718     -164.687424      -55.563248
 H         -64.850876     -166.161285      -55.068016
 H         -65.809097     -166.096924      -57.298962
 H         -64.341568     -165.434967      -58.004757
