20
 generated by VMD
 C         -11.597319      -42.147148       -7.107201
 N         -12.104569      -42.269524       -6.105272
 H         -14.766685      -43.437386       -8.237627
 H         -14.740195      -41.878036       -9.363832
 C         -15.201853      -42.878273       -9.173931
 C         -16.751926      -42.838043       -9.001451
 C         -14.921091      -43.926575      -10.274939
 C         -17.503325      -42.546413      -10.294652
 C         -15.602529      -43.497555      -11.553985
 C         -17.119854      -43.418949      -11.455230
 H         -17.060791      -42.181736       -8.162492
 H         -17.082720      -43.864033       -8.623645
 H         -13.845353      -44.025314      -10.318251
 H         -15.341240      -44.908524       -9.917679
 H         -17.394180      -41.514671      -10.638821
 H         -18.550335      -42.754536      -10.092081
 H         -15.284896      -44.190819      -12.389932
 H         -15.322387      -42.492088      -11.764229
 H         -17.543011      -42.963371      -12.356700
 H         -17.460400      -44.440174      -11.352382
