20
 generated by VMD
 C         -79.483337     -206.280289      -74.987244
 N         -79.623566     -206.442276      -73.852966
 H         -78.577522     -206.678940      -71.272209
 H         -79.570930     -206.159882      -76.018867
 C         -77.598633     -206.693771      -70.741188
 C         -76.577492     -205.724304      -71.250175
 C         -77.296677     -207.926819      -69.810822
 C         -75.327652     -205.717987      -70.355247
 C         -75.956604     -207.763428      -69.131340
 C         -74.939041     -207.193710      -70.068985
 H         -76.917999     -204.730164      -71.487579
 H         -76.414825     -206.283203      -72.149757
 H         -78.170753     -208.173691      -69.128456
 H         -77.243202     -208.692017      -70.570122
 H         -75.476906     -205.127594      -69.435371
 H         -74.607300     -205.358795      -71.058128
 H         -75.585114     -208.754089      -68.887604
 H         -76.008110     -207.222351      -68.171928
 H         -73.890625     -207.145294      -69.789017
 H         -75.031448     -207.825272      -70.975533
