20
 generated by VMD
 C         -29.644135      -73.989304      -20.458792
 N         -30.050142      -75.073036      -20.267813
 H         -26.762896      -74.483765      -19.041285
 H         -29.075596      -73.246872      -20.885530
 C         -26.354403      -74.151924      -19.979580
 C         -26.010639      -75.256523      -20.894981
 C         -25.994678      -72.723877      -20.394402
 C         -26.025476      -74.939377      -22.338554
 C         -26.075291      -72.481087      -21.949736
 C         -25.325869      -73.634262      -22.726046
 H         -26.615091      -76.186668      -20.668749
 H         -25.105097      -75.715286      -20.659019
 H         -26.668644      -72.141289      -19.869978
 H         -25.031136      -72.347710      -19.962433
 H         -27.084021      -74.988113      -22.648819
 H         -25.504099      -75.749336      -22.856936
 H         -25.676224      -71.436111      -22.009047
 H         -27.176399      -72.531136      -22.169107
 H         -25.513714      -73.348579      -23.736563
 H         -24.226219      -73.646675      -22.658491
