20
 generated by VMD
 C         -20.353973      -57.278488      -16.833973
 N         -19.237717      -56.955105      -17.049292
 H         -22.478498      -59.658501      -17.566872
 H         -21.195629      -57.626514      -16.426731
 C         -22.445740      -60.321644      -16.635969
 C         -23.656467      -61.062489      -16.194723
 C         -21.081535      -60.938602      -16.332094
 C         -23.515955      -61.489483      -14.732022
 C         -21.367285      -62.305759      -15.709875
 C         -22.072687      -61.982471      -14.369824
 H         -23.891245      -61.907932      -16.866055
 H         -24.522055      -60.475357      -16.382330
 H         -20.572474      -61.128712      -17.316393
 H         -20.433401      -60.337383      -15.695754
 H         -24.211290      -62.347443      -14.530396
 H         -23.718637      -60.530964      -14.147410
 H         -20.564835      -63.085434      -15.499740
 H         -21.952648      -62.940197      -16.425375
 H         -22.304317      -62.996853      -13.933869
 H         -21.533508      -61.289539      -13.671762
