20
 generated by VMD
 C         -23.128338      -54.998333      -16.766560
 N         -23.690470      -55.089001      -15.796874
 H         -19.837463      -55.322491      -15.311313
 H         -22.511080      -55.104595      -17.748095
 C         -19.184553      -55.959354      -14.761868
 C         -19.380182      -55.887836      -13.318084
 C         -18.473539      -57.228912      -15.245598
 C         -20.226446      -57.058163      -12.879171
 C         -19.005726      -58.470459      -14.647309
 C         -19.823402      -58.377762      -13.376925
 H         -19.879335      -54.958538      -13.005641
 H         -18.411608      -56.030884      -12.888536
 H         -18.552826      -57.224167      -16.404018
 H         -17.449011      -57.074757      -14.956276
 H         -21.233942      -56.937557      -13.321195
 H         -20.378038      -57.009571      -11.821757
 H         -18.130093      -59.171478      -14.504985
 H         -19.604227      -59.049324      -15.373129
 H         -20.725004      -59.038784      -13.358124
 H         -19.150650      -58.743580      -12.626658
