20
 generated by VMD
 C         -50.031677     -130.735703      -45.727268
 N         -50.872749     -129.909927      -45.565971
 H         -47.360630     -132.393387      -44.269817
 H         -49.074936     -131.256989      -45.769146
 C         -48.144684     -132.206421      -43.508099
 C         -48.487614     -133.457764      -42.795132
 C         -48.404465     -130.866608      -42.792233
 C         -47.950264     -133.513397      -41.399727
 C         -47.815365     -130.908127      -41.424572
 C         -48.237778     -132.221313      -40.591625
 H         -48.154083     -134.384018      -43.336906
 H         -49.588795     -133.500504      -42.710953
 H         -48.159702     -130.033173      -43.397884
 H         -49.547100     -130.821930      -42.752052
 H         -46.866756     -133.728973      -41.302956
 H         -48.418793     -134.266129      -40.737072
 H         -48.015778     -129.924606      -40.855640
 H         -46.755589     -130.924194      -41.470703
 H         -47.753288     -132.272430      -39.637444
 H         -49.337494     -132.028534      -40.570206
