20
 generated by VMD
 C         -29.452431      -89.624825      -25.828674
 N         -29.520014      -88.591881      -25.306877
 H         -31.610620      -90.512787      -27.341274
 H         -29.266365      -90.499779      -26.409513
 C         -32.534245      -90.006531      -27.391388
 C         -33.456326      -90.401375      -26.314220
 C         -32.913956      -89.311180      -28.654310
 C         -34.369259      -89.133789      -25.958963
 C         -33.801033      -88.188148      -28.261827
 C         -34.971462      -88.492722      -27.280872
 H         -32.935955      -90.808594      -25.477564
 H         -34.012775      -91.270622      -26.622841
 H         -31.943268      -89.066460      -29.067926
 H         -33.373669      -90.110840      -29.218195
 H         -33.691505      -88.408043      -25.524420
 H         -35.079266      -89.461174      -25.265276
 H         -34.357269      -87.815254      -29.053146
 H         -33.221485      -87.338676      -27.940086
 H         -35.609669      -87.642143      -26.941780
 H         -35.633644      -89.244377      -27.656158
