20
 generated by VMD
 C         -79.892540     -206.949936      -74.171974
 N         -80.438652     -206.172058      -74.799393
 H         -77.884109     -206.662094      -71.733475
 H         -79.424652     -207.568420      -73.492920
 C         -77.047432     -207.248077      -71.618980
 C         -75.727188     -206.620880      -71.574593
 C         -77.148972     -208.553513      -71.003120
 C         -75.433380     -206.355392      -70.116974
 C         -76.958336     -208.208862      -69.441940
 C         -75.576675     -207.446640      -69.118935
 H         -75.907005     -205.712418      -72.177765
 H         -74.964317     -207.273895      -71.983475
 H         -78.159431     -208.918060      -71.117531
 H         -76.332535     -209.295441      -71.280594
 H         -76.156906     -205.576035      -69.884735
 H         -74.459816     -205.878494      -69.907364
 H         -77.054497     -209.054443      -68.723312
 H         -77.802338     -207.493103      -69.245399
 H         -75.540733     -207.160950      -68.022850
 H         -74.717979     -208.100739      -69.292915
