20
 generated by VMD
 C         -48.657585     -126.323830      -38.631844
 N         -49.269783     -127.335068      -38.545982
 H         -45.891426     -123.557083      -38.250454
 H         -48.056690     -125.505363      -38.987030
 C         -45.636902     -123.569733      -39.329693
 C         -44.475067     -124.425735      -39.550934
 C         -45.712830     -122.195847      -40.086887
 C         -44.129990     -124.584785      -41.103619
 C         -45.309654     -122.324669      -41.538406
 C         -44.187504     -123.210999      -41.850052
 H         -44.608120     -125.328842      -38.982132
 H         -43.514351     -123.825836      -39.251499
 H         -46.664177     -121.647667      -39.870518
 H         -45.005085     -121.549217      -39.592415
 H         -44.850037     -125.293655      -41.519470
 H         -43.185951     -125.090012      -41.418278
 H         -45.282261     -121.486572      -42.145844
 H         -46.140984     -122.811653      -41.943588
 H         -44.079441     -123.391434      -42.939018
 H         -43.222553     -122.686172      -41.556774
