20
 generated by VMD
 C         -15.185786      -46.548180       -6.033013
 N         -14.983783      -47.349232       -5.274593
 H         -15.869314      -45.720116       -9.659411
 H         -14.822506      -45.697594      -11.035132
 C         -15.886157      -45.588646      -10.764326
 C         -16.420336      -44.174122      -11.018970
 C         -16.665150      -46.741180      -11.361977
 C         -16.509563      -44.065083      -12.562610
 C         -16.745087      -46.552715      -12.842931
 C         -17.293476      -45.201588      -13.252827
 H         -15.714458      -43.365910      -10.686786
 H         -17.408424      -44.027935      -10.560817
 H         -16.252481      -47.734615      -11.127990
 H         -17.717588      -46.671215      -10.937308
 H         -15.445970      -44.044353      -12.873561
 H         -16.975357      -43.135918      -12.891050
 H         -17.286564      -47.398674      -13.259835
 H         -15.652208      -46.596573      -13.167189
 H         -17.157495      -45.101273      -14.327733
 H         -18.357605      -45.123898      -13.045378
