20
 generated by VMD
 C         -18.256760      -49.182304       -7.999453
 N         -19.164576      -49.834213       -8.090603
 H         -16.212587      -47.474125       -9.972966
 H         -16.781536      -48.996998      -10.748677
 C         -16.508724      -47.910614      -10.932124
 C         -15.292176      -47.904961      -11.880919
 C         -17.721798      -47.217064      -11.558281
 C         -15.586346      -48.414883      -13.259870
 C         -18.045916      -47.620998      -13.020115
 C         -16.766817      -47.662621      -13.888733
 H         -14.492720      -48.372822      -11.322808
 H         -14.921035      -46.878338      -12.075072
 H         -18.628952      -47.472725      -10.984802
 H         -17.707048      -46.145569      -11.421130
 H         -15.865791      -49.482124      -13.191090
 H         -14.705760      -48.494667      -13.937272
 H         -18.725889      -46.969700      -13.493188
 H         -18.527298      -48.659554      -12.995761
 H         -17.027481      -48.151878      -14.881804
 H         -16.400080      -46.607845      -14.103211
