20
 generated by VMD
 C         -58.439453     -168.472733      -54.941364
 N         -57.277180     -168.624741      -54.942070
 H         -61.831005     -168.148438      -55.619144
 H         -59.516045     -168.404068      -55.016212
 C         -62.451576     -167.426453      -56.164486
 C         -62.654270     -167.663589      -57.590824
 C         -62.897160     -166.167862      -55.660500
 C         -64.122940     -167.607025      -57.939308
 C         -64.363686     -165.894867      -55.988964
 C         -64.694229     -166.271667      -57.432621
 H         -62.310284     -168.577209      -57.854988
 H         -62.077106     -166.911270      -58.271446
 H         -62.850464     -166.131088      -54.597569
 H         -62.403313     -165.260742      -56.142334
 H         -64.692024     -168.470551      -57.571957
 H         -64.232887     -167.642120      -59.009228
 H         -64.499153     -164.870300      -55.685158
 H         -64.982948     -166.556732      -55.434692
 H         -65.755775     -166.025833      -57.767605
 H         -64.035271     -165.560089      -57.985867
