20
 generated by VMD
 C         -50.084751     -131.161102      -46.592339
 N         -50.301647     -131.508087      -47.645439
 H         -48.307617     -131.978012      -44.034355
 H         -49.910656     -130.934128      -45.516655
 C         -48.835812     -132.328720      -43.204750
 C         -49.549309     -133.592361      -43.205986
 C         -48.750919     -131.597046      -41.861774
 C         -48.752525     -134.566025      -42.260921
 C         -47.921379     -132.486465      -40.999744
 C         -48.492348     -133.904663      -40.880341
 H         -49.667744     -133.965530      -44.294075
 H         -50.535431     -133.461578      -42.743626
 H         -48.277096     -130.574448      -41.964027
 H         -49.713390     -131.429504      -41.202618
 H         -47.844925     -134.831512      -42.795750
 H         -49.387398     -135.472031      -42.187984
 H         -47.686203     -132.248581      -39.908997
 H         -46.877697     -132.583191      -41.403793
 H         -47.812996     -134.520203      -40.361031
 H         -49.515987     -133.796829      -40.397312
