20
 generated by VMD
 C         -57.121834     -150.989822      -48.162056
 N         -58.219864     -150.999924      -48.560909
 H         -54.087761     -148.627670      -47.280903
 H         -56.106586     -150.805710      -47.893345
 C         -54.221817     -148.552841      -48.380402
 C         -53.532696     -149.331421      -49.386314
 C         -54.583927     -147.198929      -48.747173
 C         -54.388283     -149.325165      -50.652142
 C         -55.281784     -147.090042      -50.166637
 C         -54.538399     -147.894135      -51.228859
 H         -53.610203     -150.304794      -49.039867
 H         -52.459015     -149.120163      -49.348873
 H         -55.190300     -146.666840      -47.920975
 H         -53.598953     -146.622238      -48.826340
 H         -55.303123     -149.835815      -50.307480
 H         -54.009586     -149.989471      -51.447529
 H         -55.241734     -145.957886      -50.464394
 H         -56.342400     -147.419067      -50.036987
 H         -55.078751     -147.693359      -52.165501
 H         -53.611694     -147.370987      -51.195957
