20
 generated by VMD
 C         -11.119709      -39.521782       -7.079902
 N         -11.002495      -39.969948       -6.047355
 H         -13.288440      -40.849319       -9.052181
 H         -14.753162      -39.865532       -9.162072
 C         -14.406010      -40.904575       -9.260042
 C         -15.043707      -41.693302       -8.125121
 C         -14.675628      -41.482731      -10.618701
 C         -16.536242      -41.931061       -8.328486
 C         -16.164953      -41.799641      -10.798080
 C         -16.767797      -42.577221       -9.678307
 H         -14.907397      -41.093742       -7.156491
 H         -14.579251      -42.675983       -7.860851
 H         -14.402235      -40.764755      -11.437367
 H         -14.004729      -42.353642      -10.815093
 H         -17.139421      -41.015846       -8.197838
 H         -16.999439      -42.548508       -7.480663
 H         -16.190109      -42.357174      -11.718907
 H         -16.667252      -40.808231      -10.932157
 H         -17.844528      -42.544231       -9.838819
 H         -16.351068      -43.580776       -9.637155
