20
 generated by VMD
 C         -69.067833     -187.318863      -67.832169
 N         -67.913689     -187.417023      -67.598778
 H         -68.091835     -187.282593      -63.975830
 H         -70.103668     -187.190811      -67.896545
 C         -69.058357     -187.429474      -63.549107
 C         -69.038902     -187.909592      -62.214428
 C         -70.386749     -186.929123      -64.048363
 C         -70.254677     -188.724838      -61.741966
 C         -71.607216     -187.760880      -63.757366
 C         -71.616829     -188.281250      -62.216515
 H         -68.982544     -187.025436      -61.558090
 H         -68.091133     -188.503967      -62.140987
 H         -70.633392     -186.015640      -63.422462
 H         -70.302505     -186.724075      -65.078865
 H         -70.271194     -188.694687      -60.628586
 H         -70.054199     -189.783188      -62.003044
 H         -71.492935     -188.681625      -64.372948
 H         -72.580994     -187.205261      -63.911938
 H         -71.999359     -187.440186      -61.644264
 H         -72.350494     -189.147675      -62.292877
