20
 generated by VMD
 C         -70.156822     -183.871811      -66.065125
 N         -69.065582     -183.610489      -66.236267
 H         -68.820297     -184.712296      -63.385704
 H         -71.263069     -184.033096      -65.936058
 C         -68.517288     -184.092850      -62.554966
 C         -68.879562     -184.705933      -61.244030
 C         -68.063156     -182.748337      -62.485023
 C         -67.772461     -184.494446      -60.207565
 C         -66.922211     -182.400986      -61.593571
 C         -67.343681     -182.990433      -60.172550
 H         -69.000771     -185.817184      -61.304169
 H         -69.792801     -184.220322      -60.987972
 H         -67.810486     -182.388016      -63.510628
 H         -69.059998     -182.311111      -62.185356
 H         -66.979111     -185.219406      -60.460678
 H         -68.193848     -184.855255      -59.230160
 H         -66.740906     -181.327484      -61.361485
 H         -66.036514     -182.923477      -61.979412
 H         -66.463173     -182.935379      -59.600178
 H         -68.195053     -182.369095      -59.616573
