20
 generated by VMD
 C          -1.739381      -12.986226        0.567186
 N          -1.213958      -13.890316        0.974127
 H          -3.621231      -14.987622        1.767292
 H          -4.497993      -14.592883        0.226266
 C          -4.523622      -15.217313        1.163646
 C          -5.789393      -14.772597        1.946167
 C          -4.463534      -16.703396        0.971724
 C          -7.077915      -15.241610        1.232297
 C          -5.701246      -17.167028        0.191341
 C          -7.005250      -16.741241        0.930193
 H          -5.847447      -13.655250        1.961261
 H          -5.686436      -15.190213        2.924065
 H          -3.529006      -17.027714        0.501658
 H          -4.393283      -17.221836        1.917974
 H          -7.162721      -14.760072        0.226354
 H          -8.032145      -15.021589        1.779272
 H          -5.670675      -18.254864        0.039842
 H          -5.714372      -16.765480       -0.868515
 H          -7.866596      -17.135099        0.391909
 H          -6.997311      -17.256378        1.918049
