20
 generated by VMD
 C         -74.950500     -201.724121      -66.612846
 N         -74.886574     -201.527298      -65.482613
 H         -76.211830     -199.323730      -69.053406
 H         -75.041107     -201.859924      -67.636909
 C         -75.256241     -198.878082      -69.012787
 C         -74.943665     -197.570343      -68.377907
 C         -74.300827     -199.543335      -69.889984
 C         -73.441803     -197.578674      -67.957405
 C         -73.313095     -198.478287      -70.324165
 C         -72.586342     -197.685547      -69.239059
 H         -75.722420     -197.498978      -67.495560
 H         -75.129478     -196.719803      -69.087402
 H         -73.793625     -200.383728      -69.362785
 H         -74.806656     -200.016190      -70.686188
 H         -73.337021     -198.516006      -67.312851
 H         -73.173111     -196.746460      -67.286255
 H         -73.763557     -197.800018      -71.105431
 H         -72.456482     -198.923370      -70.958969
 H         -71.610039     -198.182098      -68.818199
 H         -72.407341     -196.708405      -69.688316
