20
 generated by VMD
 C         -79.871460     -205.437210      -71.680565
 N         -79.913574     -206.567307      -71.538078
 H         -76.611343     -203.774109      -71.896713
 H         -79.930450     -204.351059      -71.529343
 C         -76.195496     -203.878632      -70.899117
 C         -75.379097     -202.722656      -70.421738
 C         -76.304100     -205.110474      -70.094856
 C         -73.911049     -203.229584      -70.334824
 C         -75.063751     -205.169357      -69.000931
 C         -73.773102     -204.662216      -69.766129
 H         -75.666039     -202.258377      -69.511002
 H         -75.393379     -201.870834      -71.133675
 H         -77.273933     -205.279343      -69.446320
 H         -76.236351     -205.976074      -70.872437
 H         -73.328987     -202.522644      -69.695480
 H         -73.391815     -203.191650      -71.269684
 H         -74.981163     -206.227997      -68.692001
 H         -75.270897     -204.510742      -68.171638
 H         -72.864594     -204.874512      -69.247116
 H         -73.684250     -205.253967      -70.693405
