20
 generated by VMD
 C         -69.768570     -183.271851      -65.583389
 N         -70.584435     -182.491592      -65.951050
 H         -68.008377     -184.228653      -63.087582
 H         -69.007172     -183.878693      -65.176735
 C         -67.626137     -183.616882      -62.249237
 C         -67.735550     -184.158340      -60.845966
 C         -67.534187     -182.077682      -62.408222
 C         -67.048836     -183.293716      -59.722103
 C         -66.724342     -181.460480      -61.312790
 C         -67.242424     -181.816666      -59.902584
 H         -67.308105     -185.167023      -60.737072
 H         -68.853737     -184.058823      -60.603527
 H         -67.276237     -181.768784      -63.436562
 H         -68.531754     -181.590134      -62.303352
 H         -66.013947     -183.568054      -59.849110
 H         -67.394699     -183.472961      -58.672001
 H         -66.769867     -180.329407      -61.456978
 H         -65.627251     -181.667084      -61.422199
 H         -66.492828     -181.387543      -59.259151
 H         -68.203545     -181.451782      -59.808216
