20
 generated by VMD
 C         -61.374634     -156.133011      -55.072880
 N         -60.382507     -155.826691      -55.668274
 H         -59.616989     -156.160645      -51.542847
 H         -62.253853     -156.612991      -54.630116
 C         -58.559586     -156.367569      -51.276287
 C         -57.784897     -155.122299      -50.907970
 C         -57.857979     -157.420105      -52.065716
 C         -56.258656     -155.348404      -50.385666
 C         -56.551434     -157.711884      -51.357105
 C         -55.595177     -156.423080      -51.166451
 H         -58.338615     -154.364594      -50.196301
 H         -57.648834     -154.605667      -51.920296
 H         -58.405106     -158.360504      -52.012161
 H         -57.741047     -157.217575      -53.131554
 H         -56.124409     -155.716782      -49.325226
 H         -55.718342     -154.430130      -50.173443
 H         -55.994179     -158.561508      -51.926769
 H         -56.593163     -158.141647      -50.315121
 H         -54.645893     -156.801422      -50.602779
 H         -55.248356     -156.117447      -52.111099
