20
 generated by VMD
 C         -56.108032     -150.049728      -47.403240
 N         -57.121258     -150.236511      -46.814171
 H         -53.409683     -147.869843      -47.485371
 H         -55.100510     -150.000961      -47.880630
 C         -53.746998     -147.666367      -48.448383
 C         -53.218483     -148.277618      -49.660172
 C         -54.585358     -146.480728      -48.572895
 C         -54.148792     -148.278244      -50.811310
 C         -55.456905     -146.315109      -49.797371
 C         -54.716042     -146.857590      -50.945351
 H         -52.751877     -149.184052      -49.350780
 H         -52.328163     -147.653870      -49.904102
 H         -55.459511     -146.493912      -47.845688
 H         -53.980331     -145.532776      -48.295902
 H         -54.956688     -148.986267      -50.690586
 H         -53.610004     -148.702225      -51.699989
 H         -55.630718     -145.169464      -49.896828
 H         -56.358200     -146.820374      -49.767067
 H         -55.353073     -146.880005      -51.857319
 H         -53.860813     -146.204742      -51.264862
