20
 generated by VMD
 C         -30.955238      -77.763710      -25.432758
 N         -31.649965      -77.856026      -26.420546
 H         -29.384796      -78.318054      -23.069767
 H         -30.130901      -77.843735      -24.819418
 C         -28.968197      -79.274223      -23.318209
 C         -27.498920      -79.525993      -23.419899
 C         -29.688671      -80.498985      -22.762262
 C         -26.894281      -79.872948      -22.024601
 C         -29.135252      -80.872643      -21.420237
 C         -27.646267      -81.233841      -21.564960
 H         -27.127455      -78.475128      -23.678577
 H         -27.157820      -80.248260      -24.164560
 H         -30.764174      -80.126343      -22.716270
 H         -29.620996      -81.298859      -23.403069
 H         -27.080631      -79.140572      -21.175480
 H         -25.793472      -80.003349      -22.121841
 H         -29.831512      -81.598801      -20.966766
 H         -29.217190      -80.089523      -20.592743
 H         -27.206795      -81.517426      -20.620413
 H         -27.455740      -82.133827      -22.210482
