20
 generated by VMD
 C         -14.121068      -28.821060       -7.474197
 N         -13.320460      -28.973116       -8.231163
 H         -11.784077      -30.519449       -4.789021
 H         -10.231642      -30.015512       -3.902072
 C         -10.770315      -30.845379       -4.336436
 C          -9.906950      -31.389666       -5.436838
 C         -10.994443      -31.801212       -3.184717
 C          -8.593987      -32.176067       -5.045302
 C          -9.772516      -32.566135       -2.739783
 C          -8.948809      -33.174683       -3.858282
 H          -9.703927      -30.666193       -6.198019
 H         -10.605954      -32.166977       -5.961602
 H         -11.479533      -31.307507       -2.312520
 H         -11.688187      -32.580700       -3.574101
 H          -7.864558      -31.443457       -4.715041
 H          -8.219687      -32.603359       -5.948511
 H         -10.038469      -33.400143       -1.994808
 H          -9.173562      -31.858671       -2.207094
 H          -8.024320      -33.508160       -3.410682
 H          -9.517467      -33.981136       -4.184789
