20
 generated by VMD
 C         -11.470078      -33.559631       -9.061632
 N         -10.478750      -33.191872       -8.803514
 H         -12.252588      -34.957230       -7.338750
 H         -12.749342      -35.121216       -5.684587
 C         -12.685799      -35.691395       -6.656982
 C         -11.628715      -36.838737       -6.456133
 C         -14.017345      -36.268585       -7.118583
 C         -12.122561      -37.817818       -5.340948
 C         -14.540734      -37.072582       -5.962269
 C         -13.592865      -38.259663       -5.615098
 H         -10.743572      -36.354233       -6.013058
 H         -11.385677      -37.329247       -7.372572
 H         -14.634076      -35.362938       -7.231363
 H         -13.904869      -36.882847       -8.031784
 H         -12.108601      -37.308559       -4.358146
 H         -11.544431      -38.739285       -5.282444
 H         -15.450691      -37.487907       -6.276193
 H         -14.689746      -36.418091       -5.069551
 H         -13.964015      -38.792648       -4.696040
 H         -13.593550      -38.956291       -6.441070
