20
 generated by VMD
 C         -50.307465     -145.202530      -45.089703
 N         -49.997768     -144.858719      -44.053967
 H         -53.109947     -143.495026      -45.966904
 H         -50.561443     -145.431656      -46.140648
 C         -53.491299     -143.026215      -46.845226
 C         -52.522762     -142.872787      -48.060955
 C         -54.626701     -142.179916      -46.933640
 C         -53.326595     -143.135071      -49.308399
 C         -55.447109     -142.249619      -48.169147
 C         -54.538673     -142.191498      -49.397373
 H         -51.658661     -143.566803      -48.178875
 H         -52.223122     -141.834534      -48.077744
 H         -55.361347     -142.316269      -46.097103
 H         -54.423798     -141.060501      -46.647408
 H         -53.549545     -144.224213      -49.272179
 H         -52.850727     -143.005295      -50.300495
 H         -56.050102     -141.280106      -48.188404
 H         -56.103149     -143.187439      -48.304382
 H         -55.142593     -142.611221      -50.223171
 H         -54.229046     -141.115143      -49.577641
