20
 generated by VMD
 C         -61.191185     -156.228928      -54.990719
 N         -60.280724     -155.670166      -55.550114
 H         -59.674385     -156.390747      -51.780148
 H         -62.035934     -156.540298      -54.366753
 C         -58.571922     -156.502823      -51.618549
 C         -57.828716     -155.323181      -51.290897
 C         -57.942310     -157.797272      -51.996567
 C         -56.595940     -155.548325      -50.537212
 C         -56.567841     -157.861984      -51.192963
 C         -55.757088     -156.529907      -51.182159
 H         -58.433167     -154.543228      -50.730438
 H         -57.519028     -154.813126      -52.247166
 H         -58.601624     -158.549698      -51.723885
 H         -57.788040     -157.933823      -53.057369
 H         -56.806549     -155.757950      -49.406616
 H         -55.947811     -154.713837      -50.330322
 H         -55.862026     -158.579224      -51.678986
 H         -56.844002     -158.409485      -50.262863
 H         -54.771191     -156.673462      -50.586964
 H         -55.468327     -156.196625      -52.118526
