20
 generated by VMD
 C         -30.263586      -92.746933      -25.943769
 N         -31.327726      -92.747353      -25.531719
 H         -33.040188      -90.610390      -26.281767
 H         -29.239437      -92.891548      -26.379765
 C         -33.510704      -90.794571      -27.274040
 C         -34.340031      -92.087784      -27.348700
 C         -33.081856      -90.108452      -28.482773
 C         -35.634594      -91.827309      -28.066799
 C         -34.270821      -89.827347      -29.364187
 C         -35.259632      -91.088722      -29.429884
 H         -34.486416      -92.443893      -26.196478
 H         -33.808022      -92.990616      -27.836195
 H         -32.642082      -89.157692      -28.113770
 H         -32.290745      -90.629158      -29.047691
 H         -36.421391      -91.322319      -27.609224
 H         -36.029991      -92.849281      -28.377110
 H         -33.855644      -89.389313      -30.276161
 H         -34.655682      -88.908981      -28.917881
 H         -36.143223      -90.561974      -29.831987
 H         -34.985115      -91.804420      -30.252642
