20
 generated by VMD
 C         -20.298645      -57.297009      -16.776442
 N         -19.219395      -57.031410      -17.137215
 H         -22.506308      -59.739998      -17.548260
 H         -21.488073      -57.395004      -16.673704
 C         -22.427141      -60.338074      -16.610233
 C         -23.730303      -61.059566      -16.233526
 C         -21.078226      -60.938061      -16.272907
 C         -23.560524      -61.571247      -14.793073
 C         -21.327858      -62.305969      -15.680422
 C         -22.170258      -62.095024      -14.464839
 H         -23.885708      -61.917759      -16.925177
 H         -24.622240      -60.439518      -16.275471
 H         -20.395729      -61.005066      -17.139229
 H         -20.590542      -60.250259      -15.547517
 H         -24.326674      -62.355927      -14.653224
 H         -23.831915      -60.875454      -14.036115
 H         -20.331083      -62.708611      -15.519680
 H         -21.915937      -63.032894      -16.350349
 H         -22.118166      -62.869709      -13.688481
 H         -21.692795      -61.302029      -13.864369
