20
 generated by VMD
 C         -19.663828      -60.886436      -17.263577
 N         -19.746359      -59.825035      -17.707567
 H         -23.474810      -60.312344      -16.535196
 H         -19.627850      -61.850243      -16.656013
 C         -23.262590      -61.349133      -16.488903
 C         -23.385105      -62.083202      -17.770906
 C         -23.278696      -61.872402      -15.083770
 C         -22.968199      -63.500141      -17.588970
 C         -23.289549      -63.427750      -15.119854
 C         -23.707321      -64.210030      -16.408974
 H         -22.811802      -61.600296      -18.553291
 H         -24.369764      -61.964554      -18.097963
 H         -22.441078      -61.529354      -14.427540
 H         -24.111277      -61.467842      -14.550797
 H         -21.860786      -63.662533      -17.399294
 H         -23.153250      -64.110191      -18.541336
 H         -23.781210      -63.720074      -14.190325
 H         -22.276995      -63.742840      -14.880776
 H         -23.476362      -65.278069      -16.461601
 H         -24.750505      -64.221069      -16.507814
