20
 generated by VMD
 C         -10.651661      -36.470257       -8.800557
 N         -10.773748      -36.582317       -7.679065
 H         -13.504149      -37.212013       -7.264854
 H         -14.433986      -38.263500       -6.204734
 C         -13.986989      -38.238182       -7.167534
 C         -13.074691      -39.408512       -7.361895
 C         -14.992741      -38.215519       -8.224984
 C         -13.904867      -40.678413       -7.147646
 C         -15.831272      -39.501957       -8.219903
 C         -15.007468      -40.774521       -8.170674
 H         -12.319283      -39.427311       -6.525539
 H         -12.550010      -39.318027       -8.362496
 H         -15.718420      -37.422909       -8.010201
 H         -14.589077      -38.081844       -9.193635
 H         -14.422256      -40.644722       -6.159466
 H         -13.240410      -41.487164       -7.283767
 H         -16.504023      -39.508553       -9.134947
 H         -16.489193      -39.437347       -7.393304
 H         -15.632489      -41.654434       -7.941177
 H         -14.567933      -40.960686       -9.143641
