20
 generated by VMD
 C         -47.326435     -138.741806      -45.644527
 N         -46.925819     -138.447830      -46.728649
 H         -50.777714     -138.071060      -44.656498
 H         -47.662827     -139.303314      -44.798126
 C         -51.648003     -138.558777      -45.105072
 C         -51.747520     -139.155716      -46.565060
 C         -52.859383     -138.344955      -44.249065
 C         -52.857197     -140.166611      -46.729855
 C         -54.033298     -139.333725      -44.511276
 C         -54.218319     -139.507828      -46.073761
 H         -50.895542     -139.767517      -46.681091
 H         -51.672398     -138.315338      -47.272411
 H         -52.497559     -138.451767      -43.241928
 H         -53.133949     -137.343094      -44.457455
 H         -52.666306     -141.200531      -46.387142
 H         -53.184647     -140.245712      -47.804531
 H         -55.052761     -139.022385      -44.173374
 H         -53.708920     -140.251846      -44.062153
 H         -54.982162     -140.190063      -46.246635
 H         -54.199680     -138.533218      -46.478127
