20
 generated by VMD
 C         -50.029953     -142.944275      -45.090881
 N         -48.984463     -143.292801      -45.431362
 H         -51.839909     -140.681747      -45.442924
 H         -51.098495     -142.790543      -44.841751
 C         -52.586552     -140.929550      -46.184204
 C         -52.117027     -141.048294      -47.567276
 C         -54.105534     -140.675766      -46.011486
 C         -52.966377     -142.119736      -48.399307
 C         -54.883667     -141.700546      -46.840336
 C         -54.393879     -141.901321      -48.293461
 H         -51.077347     -141.417175      -47.586430
 H         -52.012264     -139.992188      -47.999836
 H         -54.366272     -140.701904      -44.978222
 H         -54.451859     -139.762970      -46.387779
 H         -52.540501     -143.176285      -47.999260
 H         -52.699627     -142.110031      -49.528828
 H         -55.967640     -141.463074      -46.727039
 H         -54.773983     -142.784500      -46.528831
 H         -55.054653     -142.721497      -48.805218
 H         -54.624203     -140.948273      -48.912155
