20
 generated by VMD
 C         -53.440781     -147.638977      -45.528008
 N         -54.456158     -147.675888      -44.979683
 H         -54.781834     -147.901062      -48.593922
 H         -52.449032     -147.441925      -45.969173
 C         -54.490925     -146.867538      -48.783211
 C         -53.231487     -146.622925      -49.646172
 C         -54.987007     -145.617508      -48.143661
 C         -53.326981     -145.336853      -50.549828
 C         -55.244408     -144.370209      -49.029732
 C         -53.837345     -144.043900      -49.784462
 H         -53.092899     -147.580109      -50.232323
 H         -52.355663     -146.515778      -48.972980
 H         -55.875298     -145.863251      -47.580914
 H         -54.231586     -145.428116      -47.391109
 H         -54.227379     -145.666855      -51.106354
 H         -52.426422     -145.197815      -51.103226
 H         -55.456028     -143.443130      -48.250099
 H         -56.106049     -144.511627      -49.655773
 H         -53.946075     -143.374466      -50.652161
 H         -53.036495     -143.598480      -49.108799
