20
 generated by VMD
 C         -59.741989     -171.991638      -55.227543
 N         -59.660740     -173.024536      -54.801437
 H         -62.996479     -169.928024      -55.960499
 H         -59.919300     -170.966171      -55.540134
 C         -63.580349     -169.296997      -56.688362
 C         -62.730927     -168.362930      -57.447029
 C         -65.009392     -169.462296      -57.111237
 C         -63.237022     -167.925339      -58.847046
 C         -65.314224     -168.970322      -58.599140
 C         -64.679764     -167.663681      -58.860432
 H         -61.736488     -168.666733      -57.519451
 H         -62.694778     -167.369492      -56.724026
 H         -65.470665     -170.445404      -57.030514
 H         -65.727211     -168.871857      -56.426464
 H         -63.063293     -168.741486      -59.631298
 H         -62.713120     -167.037415      -59.141823
 H         -66.386574     -168.942719      -58.712597
 H         -65.105812     -169.699814      -59.337830
 H         -65.095314     -167.423813      -59.837490
 H         -64.892754     -166.822174      -58.192352
