20
 generated by VMD
 C         -10.512273      -35.512924       -8.187350
 N         -10.190651      -36.253052       -8.964088
 H         -13.407674      -37.260708       -6.781391
 H         -14.599401      -38.060188       -5.738402
 C         -14.064086      -38.097187       -6.761225
 C         -13.115017      -39.264221       -6.952549
 C         -15.036794      -38.056877       -7.946406
 C         -13.886902      -40.519447       -6.915277
 C         -15.783284      -39.376736       -8.138774
 C         -14.871438      -40.567623       -8.031707
 H         -12.375991      -39.248123       -6.138917
 H         -12.632699      -39.098682       -7.938735
 H         -15.729698      -37.273499       -7.700364
 H         -14.424645      -37.823833       -8.830408
 H         -14.383440      -40.637581       -5.997533
 H         -13.168284      -41.337269       -7.093205
 H         -16.205511      -39.393509       -9.120185
 H         -16.621181      -39.474186       -7.390158
 H         -15.437881      -41.470016       -7.918411
 H         -14.351088      -40.684402       -8.980486
