20
 generated by VMD
 C         -33.653305      -96.104782      -25.403322
 N         -34.012394      -96.887711      -26.174961
 H         -34.975044      -94.377846      -27.326483
 H         -33.201401      -95.409660      -24.603573
 C         -34.841225      -94.006218      -28.340792
 C         -35.876934      -94.470657      -29.268745
 C         -33.608925      -93.696159      -29.055670
 C         -36.156078      -93.548981      -30.467871
 C         -33.782047      -92.826080      -30.332277
 C         -34.804478      -93.356934      -31.297512
 H         -36.826496      -94.548294      -28.765131
 H         -35.589890      -95.554482      -29.525223
 H         -32.854450      -93.286011      -28.385441
 H         -33.160530      -94.681183      -29.359310
 H         -36.631168      -92.632454      -30.055231
 H         -36.898773      -94.052032      -31.161964
 H         -32.828167      -92.662567      -30.719213
 H         -34.242413      -91.795189      -30.150475
 H         -34.903347      -92.789757      -32.270020
 H         -34.477226      -94.534515      -31.475447
