20
 generated by VMD
 C         -36.994541      -98.409576      -25.672304
 N         -36.689953      -98.421730      -26.787695
 H         -35.932560      -95.954361      -28.417114
 H         -37.111286      -98.422539      -24.530231
 C         -35.621288      -95.616257      -29.424891
 C         -35.746078      -96.455498      -30.690897
 C         -34.393291      -94.743759      -29.111425
 C         -35.098610      -95.800087      -31.932482
 C         -33.865604      -94.164146      -30.448648
 C         -33.766396      -95.161697      -31.540087
 H         -36.786572      -96.617668      -30.882517
 H         -35.200878      -97.386925      -30.528580
 H         -34.727589      -93.987549      -28.420704
 H         -33.560402      -95.219490      -28.552929
 H         -35.801289      -95.060524      -32.293999
 H         -34.981430      -96.516006      -32.789909
 H         -32.951393      -93.697128      -30.218899
 H         -34.603706      -93.397675      -30.786209
 H         -33.272892      -94.581467      -32.439697
 H         -32.861343      -95.802277      -31.226049
