20
 generated by VMD
 C         -61.621334     -172.387009      -54.928364
 N         -60.689011     -172.974380      -55.193703
 H         -62.177067     -170.692459      -58.494419
 H         -62.411640     -171.672058      -54.786968
 C         -62.775951     -170.117203      -57.824471
 C         -62.533989     -168.574966      -57.681889
 C         -64.300003     -170.535812      -57.638138
 C         -63.454811     -167.852356      -58.677662
 C         -65.083794     -169.723984      -58.597420
 C         -64.903595     -168.264450      -58.476719
 H         -61.558514     -168.408997      -57.846504
 H         -62.747471     -168.236038      -56.557922
 H         -64.402893     -171.574371      -57.820614
 H         -64.593399     -170.361343      -56.611828
 H         -63.195198     -168.136444      -59.788513
 H         -63.483742     -166.735428      -58.710266
 H         -66.174095     -169.935043      -58.512936
 H         -64.910019     -170.076355      -59.659157
 H         -65.386322     -167.637344      -59.136295
 H         -65.183533     -167.960373      -57.458874
