20
 generated by VMD
 C         -28.178392      -81.255539      -27.592533
 N         -29.315695      -81.099167      -27.466002
 H         -29.775230      -82.714088      -24.682249
 H         -27.069582      -81.460091      -27.818937
 C         -30.037340      -83.748253      -24.385778
 C         -30.141014      -83.889618      -22.893389
 C         -30.734264      -84.601807      -25.351089
 C         -31.488087      -84.257668      -22.425009
 C         -32.127647      -84.935631      -24.941540
 C         -32.265995      -85.309212      -23.348267
 H         -29.679489      -82.967728      -22.450262
 H         -29.481546      -84.666145      -22.553392
 H         -30.821310      -84.175125      -26.395153
 H         -30.089632      -85.469574      -25.579302
 H         -32.157093      -83.290001      -22.313690
 H         -31.198088      -84.646194      -21.526310
 H         -32.319431      -85.848984      -25.470741
 H         -32.945835      -84.125755      -25.237770
 H         -33.349701      -85.496437      -22.997669
 H         -31.777365      -86.264870      -23.318874
