20
 generated by VMD
 C         -47.781780     -136.817719      -46.055031
 N         -47.108635     -136.559708      -46.996235
 H         -50.410660     -136.018051      -45.140778
 H         -48.622246     -137.146118      -45.418510
 C         -51.068226     -136.927628      -44.933773
 C         -51.346142     -137.928116      -46.017307
 C         -52.022469     -136.766907      -43.853531
 C         -52.172047     -139.077194      -45.570641
 C         -52.629471     -138.045517      -43.412949
 C         -53.270348     -138.910004      -44.594593
 H         -50.434093     -138.250687      -46.496624
 H         -51.914822     -137.311172      -46.739281
 H         -51.388046     -136.433212      -43.072857
 H         -52.760746     -136.042557      -44.287449
 H         -51.430740     -139.784271      -45.064770
 H         -52.540348     -139.565002      -46.463184
 H         -53.500095     -137.886337      -42.867214
 H         -51.928299     -138.668640      -42.753616
 H         -53.646950     -140.070801      -44.371799
 H         -54.028843     -138.334991      -45.118702
