20
 generated by VMD
 C          -1.424320      -11.682199        1.572499
 N          -1.108661      -12.339048        0.713313
 H          -3.977745      -12.895625        0.550810
 H          -5.620016      -13.097204        0.883287
 C          -4.660544      -13.614657        0.933652
 C          -4.449912      -13.933870        2.427921
 C          -4.797490      -14.895524        0.174431
 C          -5.633464      -14.656699        2.963123
 C          -5.967991      -15.828287        0.711682
 C          -5.787816      -15.966012        2.250136
 H          -4.271180      -12.941535        2.952623
 H          -3.569475      -14.610218        2.445150
 H          -4.944715      -14.672063       -0.822998
 H          -3.929434      -15.474093        0.308479
 H          -6.527388      -13.986101        2.978984
 H          -5.319101      -14.881483        4.011097
 H          -5.810790      -16.805868        0.169306
 H          -6.947184      -15.418118        0.405997
 H          -6.642727      -16.485996        2.625647
 H          -4.950064      -16.590748        2.441274
