20
 generated by VMD
 C         -58.770214     -151.990799      -48.978981
 N         -59.205753     -152.186783      -50.077473
 H         -56.403358     -150.472427      -48.393143
 H         -58.466969     -151.658218      -47.983868
 C         -55.648357     -150.139694      -49.030869
 C         -54.659992     -151.106171      -49.730129
 C         -55.312912     -148.709106      -49.031052
 C         -54.140121     -150.689926      -51.048203
 C         -54.795898     -148.320496      -50.566853
 C         -53.665554     -149.304520      -51.068222
 H         -55.042561     -152.134033      -49.732071
 H         -53.922821     -151.208801      -48.882740
 H         -56.163628     -148.040558      -49.015457
 H         -54.521832     -148.431992      -48.363823
 H         -54.877827     -151.032455      -51.804417
 H         -53.257427     -151.258575      -51.309910
 H         -54.265812     -147.417084      -50.504333
 H         -55.680641     -148.433655      -51.334976
 H         -53.442730     -149.065140      -52.087612
 H         -52.808491     -149.233185      -50.376972
