20
 generated by VMD
 C         -49.397842     -132.351501      -46.659031
 N         -50.296841     -131.985474      -47.210049
 H         -47.365749     -134.514542      -44.071857
 H         -48.430737     -132.784927      -46.373192
 C         -48.355160     -134.543793      -43.589588
 C         -49.055622     -135.757767      -43.894180
 C         -49.234043     -133.378738      -43.100159
 C         -49.894665     -136.230179      -42.645088
 C         -50.094131     -133.838715      -41.899158
 C         -50.815804     -135.122208      -42.079124
 H         -48.301167     -136.547714      -44.164238
 H         -49.671604     -135.567291      -44.774761
 H         -48.597672     -132.567230      -42.792614
 H         -49.867962     -133.057449      -43.864098
 H         -49.168102     -136.693527      -42.034286
 H         -50.432148     -137.036041      -43.058296
 H         -50.799664     -133.007767      -41.664070
 H         -49.528656     -134.035446      -40.897579
 H         -51.176086     -135.546112      -41.058357
 H         -51.651890     -135.164597      -42.668995
