20
 generated by VMD
 C         -50.741035     -129.147842      -42.762314
 N         -50.523159     -128.210220      -42.093979
 H         -48.446156     -127.896965      -40.003296
 H         -50.620407     -129.948456      -43.481834
 C         -47.429516     -127.613159      -40.501663
 C         -46.268345     -128.471359      -40.193413
 C         -47.195240     -126.279243      -41.193104
 C         -44.994995     -128.209030      -40.970978
 C         -45.836731     -126.199600      -42.033825
 C         -44.653259     -126.766373      -41.267143
 H         -46.534157     -129.507950      -40.445919
 H         -46.014927     -128.442215      -39.154518
 H         -48.086330     -125.905754      -41.767765
 H         -47.049618     -125.328835      -40.591820
 H         -45.024261     -128.736008      -41.912197
 H         -44.093716     -128.727798      -40.614666
 H         -45.618694     -125.214615      -42.462372
 H         -46.026573     -126.949867      -42.797531
 H         -43.744896     -126.865829      -41.980431
 H         -44.388401     -126.201981      -40.339737
