20
 generated by VMD
 C         -47.602257     -136.679031      -45.886593
 N         -46.985630     -136.162827      -46.810444
 H         -50.847710     -135.654205      -45.686787
 H         -48.275955     -137.169357      -45.204090
 C         -51.331463     -136.511169      -45.218113
 C         -51.962372     -137.522461      -46.121410
 C         -51.936764     -136.445374      -43.887566
 C         -52.037186     -138.924698      -45.431438
 C         -52.008213     -137.810455      -43.220848
 C         -52.739269     -138.801147      -44.097313
 H         -51.277348     -137.723892      -46.982376
 H         -52.886272     -137.174927      -46.525768
 H         -51.431847     -135.818222      -43.174595
 H         -52.999096     -136.099899      -43.902908
 H         -50.957882     -139.186874      -45.254780
 H         -52.493114     -139.623199      -46.068867
 H         -52.617195     -137.685852      -42.316364
 H         -50.971077     -138.025665      -42.982761
 H         -52.545532     -139.749695      -43.616661
 H         -53.732475     -138.422760      -44.218334
