20
 generated by VMD
 C         -57.478889     -162.209442      -56.199894
 N         -57.157051     -162.158234      -57.316257
 H         -59.607765     -165.010971      -55.060574
 H         -57.789738     -162.206909      -55.179977
 C         -60.610939     -164.599182      -54.796738
 C         -60.868965     -164.459625      -53.305851
 C         -61.693985     -164.522812      -55.812801
 C         -61.880573     -163.263489      -53.129963
 C         -62.931938     -163.645142      -55.412968
 C         -63.191528     -163.680862      -53.926392
 H         -59.940273     -164.228500      -52.721970
 H         -61.268475     -165.363403      -52.870495
 H         -61.226143     -164.250336      -56.745449
 H         -62.158848     -165.530487      -55.906303
 H         -61.491608     -162.242081      -53.401764
 H         -62.201290     -163.099380      -52.003983
 H         -63.852173     -163.978409      -55.897964
 H         -62.669754     -162.676224      -55.680508
 H         -63.973347     -162.997131      -53.658512
 H         -63.504417     -164.688431      -53.623127
