20
 generated by VMD
 C         -28.476891      -82.450500      -26.301378
 N         -27.897299      -82.546661      -27.320713
 H         -31.287291      -83.672859      -26.510252
 H         -29.042711      -82.256332      -25.445841
 C         -31.319162      -84.544914      -25.730871
 C         -30.690996      -84.441978      -24.297318
 C         -31.873234      -85.979225      -26.036715
 C         -31.721455      -84.850456      -23.244406
 C         -32.939022      -86.311981      -25.000982
 C         -32.359989      -86.148438      -23.611675
 H         -30.594065      -83.384781      -24.002323
 H         -29.828707      -84.970314      -24.132032
 H         -32.316345      -85.854233      -27.049234
 H         -31.204771      -86.837708      -26.190504
 H         -32.496574      -84.075249      -23.375692
 H         -31.226151      -84.855568      -22.322540
 H         -33.355404      -87.297714      -25.059525
 H         -33.816025      -85.572731      -24.936424
 H         -33.110699      -86.270035      -22.728430
 H         -31.592140      -86.933205      -23.442080
