20
 generated by VMD
 C         -69.741325     -180.975113      -62.210480
 N         -70.365982     -180.010590      -62.490288
 H         -66.856827     -181.648376      -60.377064
 H         -69.115570     -181.810837      -62.063042
 C         -66.321190     -180.682053      -60.535011
 C         -64.872681     -180.523132      -60.401115
 C         -67.244171     -179.534164      -60.258961
 C         -64.430580     -179.180115      -61.033749
 C         -66.651772     -178.241638      -60.959194
 C         -65.255135     -178.059113      -60.491173
 H         -64.365662     -181.426941      -60.789604
 H         -64.616615     -180.549652      -59.292530
 H         -68.215263     -179.648788      -60.651608
 H         -67.407272     -179.362961      -59.145817
 H         -64.417976     -179.223816      -62.170757
 H         -63.382759     -178.834244      -60.775635
 H         -67.263474     -177.452164      -60.573681
 H         -66.849480     -178.245331      -61.992386
 H         -64.837746     -176.926987      -60.725689
 H         -65.144096     -178.151871      -59.322884
