20
 generated by VMD
 C          -2.544855       -9.011024        0.414892
 N          -1.592491       -9.455720       -0.006896
 H          -2.355249      -11.858549        2.592521
 H          -3.153603      -12.313386        4.042631
 C          -3.174446      -12.492735        2.975007
 C          -2.720203      -13.937607        2.618690
 C          -4.452956      -12.163270        2.242787
 C          -3.841643      -14.966241        3.088321
 C          -5.594499      -13.108901        2.605500
 C          -5.201192      -14.572649        2.493691
 H          -1.783576      -14.264802        3.010719
 H          -2.673246      -14.081638        1.568660
 H          -4.719296      -11.161291        2.611597
 H          -4.244923      -11.991819        1.138351
 H          -3.901476      -14.831656        4.191567
 H          -3.675665      -16.013874        2.892691
 H          -6.488855      -12.833911        2.065664
 H          -5.819081      -12.909549        3.658363
 H          -6.072131      -15.191094        2.880329
 H          -5.194484      -14.762449        1.402281
