20
 generated by VMD
 C         -57.540287     -165.746140      -56.607086
 N         -57.910419     -166.752960      -56.115459
 H         -60.685501     -165.117630      -54.383537
 H         -57.303516     -164.767868      -56.964882
 C         -61.690380     -165.315994      -54.863785
 C         -61.801773     -166.700378      -55.270218
 C         -62.380878     -164.077667      -55.402145
 C         -63.244644     -166.946274      -55.677601
 C         -63.801590     -164.440094      -55.744648
 C         -63.956669     -165.832855      -56.460506
 H         -61.348423     -167.468857      -54.476635
 H         -61.121128     -166.984085      -56.131302
 H         -62.373524     -163.289597      -54.703632
 H         -61.929985     -163.734070      -56.342365
 H         -63.733086     -167.133804      -54.734509
 H         -63.275002     -167.830154      -56.322701
 H         -64.269630     -163.521683      -56.495113
 H         -64.475243     -164.326141      -54.821693
 H         -65.084770     -165.959579      -56.435257
 H         -63.671551     -165.809341      -57.559505
