20
 generated by VMD
 C         -78.337631     -209.643723      -77.009857
 N         -78.629868     -208.909332      -77.847153
 H         -78.965508     -210.560028      -73.338165
 H         -78.128090     -210.337082      -76.132713
 C         -78.883888     -211.630585      -73.001968
 C         -77.804611     -211.993820      -72.027283
 C         -80.023560     -212.546066      -72.884926
 C         -78.149178     -212.254608      -70.651955
 C         -80.398254     -212.952850      -71.452011
 C         -79.286438     -213.299652      -70.540909
 H         -77.061272     -211.224045      -72.110107
 H         -77.236832     -212.827682      -72.424973
 H         -80.905785     -212.000748      -73.214615
 H         -79.858063     -213.440643      -73.572746
 H         -78.524902     -211.247375      -70.300079
 H         -77.329216     -212.470367      -69.960587
 H         -81.128258     -213.753189      -71.648483
 H         -80.890411     -212.150726      -71.050728
 H         -79.753380     -213.351181      -69.547920
 H         -78.891258     -214.329178      -70.712082
