20
 generated by VMD
 C         -68.898071     -184.608643      -66.084183
 N         -69.546181     -185.464951      -66.516289
 H         -69.266357     -183.197922      -63.908268
 H         -68.307457     -183.882889      -65.639450
 C         -69.031265     -183.673630      -62.942993
 C         -69.768967     -184.842789      -62.337708
 C         -68.037033     -182.974457      -62.087894
 C         -68.988548     -185.841873      -61.432171
 C         -67.186668     -184.014145      -61.389183
 C         -68.133202     -184.936172      -60.570415
 H         -70.209679     -185.425217      -63.226173
 H         -70.647179     -184.533661      -61.752945
 H         -67.486023     -182.284073      -62.657986
 H         -68.587646     -182.463089      -61.294262
 H         -68.204384     -186.469238      -61.947819
 H         -69.770897     -186.496506      -60.980076
 H         -66.423706     -183.465240      -60.935543
 H         -66.706352     -184.746582      -62.052635
 H         -67.552452     -185.623291      -59.962269
 H         -68.723625     -184.476288      -59.896439
