20
 generated by VMD
 C         -67.756584     -185.830002      -67.145676
 N         -68.748230     -185.859009      -67.774773
 H         -68.651367     -188.392090      -64.602661
 H         -66.792633     -185.795181      -66.665855
 C         -69.244812     -187.863419      -63.809036
 C         -68.969292     -186.631958      -63.017879
 C         -70.592201     -188.307724      -63.785133
 C         -69.389160     -186.774033      -61.587559
 C         -71.398247     -188.297897      -62.417408
 C         -71.000015     -187.142929      -61.482597
 H         -69.472855     -185.738327      -63.443207
 H         -67.971100     -186.297562      -63.184715
 H         -71.170807     -187.817581      -64.542824
 H         -70.696907     -189.336655      -64.263489
 H         -69.214691     -185.785202      -61.172905
 H         -68.911514     -187.605255      -61.032661
 H         -71.097771     -189.137650      -61.845528
 H         -72.397316     -188.497604      -62.669468
 H         -71.522522     -186.118469      -61.661877
 H         -71.245789     -187.427261      -60.467110
