20
 generated by VMD
 C          -2.341886       -8.665051       -0.811804
 N          -1.612976       -8.281556       -0.013257
 H          -2.918677       -9.558318        2.944729
 H          -1.773071      -10.881211        3.348094
 C          -2.869482      -10.629577        3.182441
 C          -3.504758      -11.475728        2.131581
 C          -3.675074      -10.865097        4.520402
 C          -3.336913      -12.989307        2.499426
 C          -3.590383      -12.283735        5.036162
 C          -3.967525      -13.303651        3.897146
 H          -2.978559      -11.278029        1.165456
 H          -4.563633      -11.273344        1.979443
 H          -3.159465      -10.270973        5.375775
 H          -4.710695      -10.432691        4.514986
 H          -2.233516      -13.253628        2.500492
 H          -3.826840      -13.628259        1.708233
 H          -4.201401      -12.521534        5.915302
 H          -2.575376      -12.526377        5.284246
 H          -3.802181      -14.341773        4.184062
 H          -5.045448      -13.250332        3.886961
