20
 generated by VMD
 C         -68.628212     -194.982864      -65.506012
 N         -68.757057     -195.064987      -64.329224
 H         -71.197006     -194.472885      -67.390732
 H         -68.422821     -195.014969      -66.571793
 C         -72.032532     -193.842361      -67.211914
 C         -71.770264     -192.480927      -66.552589
 C         -73.411362     -194.365189      -67.583725
 C         -72.984367     -192.057083      -65.707504
 C         -74.585693     -193.587891      -66.914223
 C         -74.332649     -192.127487      -66.425980
 H         -71.557312     -191.765121      -67.421661
 H         -71.042435     -192.661819      -65.849205
 H         -73.672211     -194.148682      -68.639603
 H         -73.369156     -195.403320      -67.234428
 H         -72.935699     -191.066986      -65.316277
 H         -72.978035     -192.786774      -64.881279
 H         -74.801384     -194.165619      -65.975220
 H         -75.431015     -193.663879      -67.550285
 H         -74.234566     -191.401047      -67.389000
 H         -75.107773     -191.758759      -65.830170
