20
 generated by VMD
 C         -28.292114      -82.214294      -26.382902
 N         -28.008713      -82.436806      -27.464670
 H         -30.538925      -83.869667      -26.411179
 H         -28.638788      -81.948830      -25.309092
 C         -31.159210      -84.456947      -25.662859
 C         -30.680099      -84.382973      -24.208012
 C         -31.891388      -85.784523      -25.994696
 C         -31.792641      -84.825699      -23.181107
 C         -32.903042      -86.311371      -24.886120
 C         -32.345287      -86.122238      -23.486219
 H         -30.338387      -83.349030      -23.857038
 H         -29.742119      -85.014420      -24.257566
 H         -32.509476      -85.713936      -26.891092
 H         -31.038469      -86.482430      -26.318922
 H         -32.625164      -84.009789      -23.327421
 H         -31.402115      -84.865898      -22.145075
 H         -33.132488      -87.378357      -24.906765
 H         -33.886871      -85.718208      -25.027637
 H         -33.132553      -86.343407      -22.809986
 H         -31.557337      -86.904510      -23.400675
