20
 generated by VMD
 C         -30.136742      -92.703766      -25.666739
 N         -31.268845      -93.025909      -25.707775
 H         -32.901924      -90.915848      -26.324711
 H         -29.127491      -92.552269      -25.678051
 C         -33.555161      -91.051575      -27.211565
 C         -34.507141      -92.138390      -27.416264
 C         -33.162441      -90.333221      -28.447348
 C         -35.729935      -91.670258      -28.207222
 C         -34.290489      -89.942436      -29.415800
 C         -35.312935      -91.075089      -29.620371
 H         -34.720371      -92.585175      -26.441793
 H         -33.763687      -92.815781      -27.900446
 H         -32.489807      -89.513336      -28.274517
 H         -32.472237      -90.996162      -29.057447
 H         -36.292805      -90.889214      -27.615013
 H         -36.464706      -92.477364      -28.409575
 H         -33.884792      -89.377869      -30.347170
 H         -34.892918      -89.149559      -28.882109
 H         -36.195061      -90.847191      -30.169760
 H         -34.791897      -91.811295      -30.231813
