20
 generated by VMD
 C         -27.874815      -81.188370      -27.514589
 N         -29.051916      -81.298653      -27.523779
 H         -29.670656      -83.242920      -25.067799
 H         -26.862928      -81.134483      -27.680075
 C         -30.316957      -83.987862      -24.575096
 C         -30.243649      -83.957390      -23.149305
 C         -31.043560      -84.804199      -25.459269
 C         -31.626354      -84.377556      -22.561369
 C         -32.365154      -85.307228      -24.858133
 C         -32.261311      -85.571266      -23.308870
 H         -29.997271      -82.914894      -22.788109
 H         -29.479507      -84.650833      -22.637337
 H         -31.323200      -84.273209      -26.364267
 H         -30.261316      -85.515808      -25.792439
 H         -32.322124      -83.565674      -22.598192
 H         -31.648687      -84.638245      -21.422625
 H         -32.767464      -86.258636      -25.456614
 H         -33.064835      -84.471153      -25.034924
 H         -33.286598      -85.665199      -22.950535
 H         -31.714182      -86.587257      -23.028786
