20
 generated by VMD
 C         -24.806297      -70.274940      -16.438946
 N         -24.904129      -70.865112      -15.434426
 H         -23.596031      -68.058075      -18.985857
 H         -24.504364      -69.775330      -17.440975
 C         -24.337082      -68.470215      -19.619049
 C         -23.770231      -69.166870      -20.810743
 C         -25.796431      -68.075348      -19.649132
 C         -24.852787      -70.077667      -21.368652
 C         -26.722311      -69.170097      -20.210001
 C         -26.253023      -69.616074      -21.579266
 H         -22.921831      -69.890984      -20.399601
 H         -23.402760      -68.386139      -21.440413
 H         -26.154913      -68.001472      -18.565577
 H         -26.044355      -67.063889      -20.223387
 H         -24.981224      -70.843925      -20.609280
 H         -24.393967      -70.635033      -22.260292
 H         -27.800968      -68.918297      -20.241816
 H         -26.607954      -70.107292      -19.592220
 H         -26.873978      -70.452034      -21.977489
 H         -26.166763      -68.813644      -22.337322
