20
 generated by VMD
 C         -50.327442     -129.555389      -43.464428
 N         -50.824776     -129.714020      -44.447525
 H         -49.150330     -127.943855      -40.905632
 H         -49.784893     -129.370987      -42.551273
 C         -48.109917     -128.109314      -41.059402
 C         -47.684921     -129.600327      -40.844078
 C         -46.959827     -127.145393      -40.743950
 C         -46.393654     -129.851440      -41.664368
 C         -45.712177     -127.566345      -41.473595
 C         -45.244141     -128.971878      -41.194698
 H         -48.504105     -130.355850      -41.108086
 H         -47.507626     -129.785995      -39.798168
 H         -47.230759     -126.133415      -40.953609
 H         -46.767857     -127.186127      -39.586552
 H         -46.686234     -129.942490      -42.708328
 H         -46.030357     -130.845734      -41.436913
 H         -44.836296     -127.018639      -41.253040
 H         -45.918819     -127.524689      -42.475170
 H         -44.383442     -129.172134      -41.792439
 H         -45.156475     -129.074524      -40.073204
