20
 generated by VMD
 C         -59.644157     -157.641266      -56.703838
 N         -59.043121     -158.685135      -56.844135
 H         -60.514263     -157.695007      -52.803413
 H         -60.140362     -156.686081      -56.671097
 C         -59.809345     -158.511902      -52.691147
 C         -58.390202     -158.273758      -52.338741
 C         -60.374683     -159.897491      -52.941170
 C         -57.990547     -159.404358      -51.447201
 C         -59.710072     -161.015793      -52.075134
 C         -58.214638     -160.768402      -51.964268
 H         -58.302097     -157.384628      -51.638206
 H         -57.693771     -158.249893      -53.164013
 H         -61.455975     -159.809357      -52.722649
 H         -60.343670     -160.210068      -54.027874
 H         -58.646603     -159.221985      -50.513809
 H         -56.974808     -159.511444      -51.076000
 H         -59.686073     -162.052094      -52.518711
 H         -60.318554     -161.041046      -51.162762
 H         -57.844570     -161.578094      -51.277233
 H         -57.668205     -160.841751      -52.984440
