20
 generated by VMD
 C         -78.326675     -209.692322      -77.034416
 N         -78.700195     -208.873840      -77.740570
 H         -79.002998     -210.683533      -73.304573
 H         -78.025024     -210.422394      -76.390076
 C         -78.861275     -211.665939      -72.861519
 C         -77.638924     -211.886429      -72.033066
 C         -80.100266     -212.555710      -72.964417
 C         -78.156693     -212.218246      -70.554153
 C         -80.456703     -212.795853      -71.523262
 C         -79.209846     -213.291626      -70.611351
 H         -77.099533     -210.905029      -71.975327
 H         -77.066933     -212.720261      -72.423462
 H         -80.864510     -212.191879      -73.644974
 H         -79.805443     -213.520905      -73.487503
 H         -78.539642     -211.351257      -70.008591
 H         -77.317612     -212.646500      -70.009621
 H         -81.221161     -213.601517      -71.277512
 H         -80.765244     -211.873260      -71.084564
 H         -79.533340     -213.305069      -69.541832
 H         -78.785614     -214.206985      -70.933800
