20
 generated by VMD
 C         -66.960869     -189.910995      -66.991692
 N         -67.331963     -190.120926      -65.938828
 H         -70.745750     -190.848770      -66.374146
 H         -66.422287     -189.591919      -67.880318
 C         -71.129662     -190.339096      -65.450356
 C         -72.343010     -191.066986      -64.974762
 C         -70.418526     -189.391342      -64.597977
 C         -73.253593     -190.275558      -64.144562
 C         -71.462601     -188.512192      -63.988422
 C         -72.490562     -189.276169      -63.189999
 H         -71.867653     -191.942108      -64.451378
 H         -72.944023     -191.354843      -65.857445
 H         -69.818359     -189.886749      -63.787701
 H         -69.759682     -188.778915      -65.135902
 H         -73.899162     -190.945297      -63.498943
 H         -73.926910     -189.751144      -64.803879
 H         -71.932236     -187.860168      -64.664017
 H         -70.956131     -187.774734      -63.315975
 H         -71.903214     -189.843765      -62.433651
 H         -73.150581     -188.619003      -62.683270
