20
 generated by VMD
 C         -11.439270      -25.930704       -0.858886
 N         -11.196117      -24.944248       -0.408024
 H          -7.578520      -26.029470       -1.028352
 H          -8.980516      -25.526102       -2.049284
 C          -7.878829      -25.546410       -1.958157
 C          -7.430721      -26.327953       -3.191101
 C          -7.372139      -24.071121       -1.991612
 C          -7.622842      -25.749517       -4.517595
 C          -7.585190      -23.459976       -3.375233
 C          -7.024249      -24.310787       -4.542024
 H          -7.907868      -27.360645       -3.101804
 H          -6.342005      -26.607080       -3.019850
 H          -7.786174      -23.486692       -1.193443
 H          -6.282941      -23.995735       -1.812554
 H          -8.690774      -25.633621       -4.758880
 H          -7.286770      -26.406866       -5.360153
 H          -7.289536      -22.424223       -3.400244
 H          -8.655864      -23.462498       -3.551565
 H          -7.088009      -23.836632       -5.497591
 H          -5.934494      -24.348738       -4.402016
