20
 generated by VMD
 C         -21.751245      -66.110512      -16.690361
 N         -20.892557      -66.648041      -16.114923
 H         -24.601835      -64.028267      -18.422844
 H         -22.595911      -65.412521      -16.863491
 C         -24.537283      -65.072441      -18.607473
 C         -24.382917      -65.597786      -19.979240
 C         -25.434244      -65.819923      -17.615456
 C         -24.345100      -67.151581      -19.980791
 C         -25.290785      -67.354118      -17.776537
 C         -25.500381      -67.740997      -19.315762
 H         -23.420683      -65.318634      -20.582981
 H         -25.172468      -65.184532      -20.602448
 H         -25.118086      -65.665886      -16.638277
 H         -26.420586      -65.432701      -17.846470
 H         -23.314095      -67.376831      -19.628046
 H         -24.304728      -67.477081      -21.060951
 H         -26.130255      -67.716705      -17.209251
 H         -24.357508      -67.894638      -17.497597
 H         -25.634830      -68.827705      -19.521803
 H         -26.366703      -67.268143      -19.696541
