20
 generated by VMD
 C         -11.669874      -41.783699       -6.115384
 N         -10.854259      -41.613392       -6.851248
 H         -14.602287      -41.424511       -8.387955
 H         -15.283316      -40.589237       -9.690833
 C         -15.267881      -41.583866       -9.213631
 C         -16.621614      -41.971462       -8.754913
 C         -14.641563      -42.607674      -10.126615
 C         -17.518335      -42.586338       -9.823931
 C         -15.557915      -42.987930      -11.298667
 C         -16.872541      -43.560730      -10.808768
 H         -17.162708      -41.048695       -8.361723
 H         -16.511532      -42.707916       -7.948863
 H         -13.670707      -42.299942      -10.630922
 H         -14.395379      -43.529018       -9.569411
 H         -18.013918      -41.705559      -10.236979
 H         -18.384649      -43.072968       -9.364812
 H         -15.024641      -43.725071      -11.871929
 H         -15.740039      -42.145088      -11.976974
 H         -17.534515      -43.806103      -11.651216
 H         -16.661858      -44.458241      -10.275119
