20
 generated by VMD
 C         -11.469391      -41.999271       -6.325755
 N         -11.072150      -41.152039       -6.903953
 H         -14.650375      -40.788601       -8.365623
 H         -15.631745      -40.472767       -9.874976
 C         -15.258578      -41.261574       -9.226102
 C         -16.498842      -41.877632       -8.585600
 C         -14.560748      -42.197456      -10.169458
 C         -17.419003      -42.459034       -9.597687
 C         -15.410657      -42.962070      -11.112274
 C         -16.746395      -43.437660      -10.547024
 H         -16.995800      -41.078835       -8.089973
 H         -16.211945      -42.607327       -7.848271
 H         -13.820511      -41.633808      -10.742759
 H         -13.928236      -42.897491       -9.662575
 H         -17.907671      -41.625816      -10.177407
 H         -18.349905      -42.905483       -9.223787
 H         -14.869826      -43.811462      -11.457810
 H         -15.700658      -42.323479      -12.027311
 H         -17.352100      -43.663605      -11.436152
 H         -16.599840      -44.356388       -9.915405
