20
 generated by VMD
 C         -33.637566      -96.758797      -25.915728
 N         -34.772213      -96.618286      -26.180466
 H         -35.223423      -93.820724      -27.478926
 H         -32.549412      -96.666275      -25.681381
 C         -34.991955      -94.217583      -28.476381
 C         -35.996037      -94.761986      -29.372480
 C         -33.611153      -93.840950      -28.938433
 C         -36.053066      -94.015320      -30.682066
 C         -33.803455      -93.009521      -30.207987
 C         -34.678513      -93.735382      -31.288517
 H         -36.940929      -94.699020      -28.830141
 H         -35.758305      -95.772507      -29.556141
 H         -33.249882      -93.157440      -28.162895
 H         -32.900036      -94.630630      -29.088476
 H         -36.549763      -93.040901      -30.546745
 H         -36.751915      -94.570198      -31.371918
 H         -32.773117      -92.838974      -30.736469
 H         -34.075672      -91.993652      -30.013659
 H         -34.590340      -93.125221      -32.317352
 H         -34.129925      -94.558533      -31.446308
