20
 generated by VMD
 C         -52.996109     -146.823914      -45.058121
 N         -52.155281     -147.203430      -44.374542
 H         -54.943840     -146.688522      -47.953766
 H         -53.825943     -146.507309      -45.717907
 C         -54.426884     -145.822479      -48.281059
 C         -53.158058     -145.674408      -49.112766
 C         -55.090412     -144.605972      -47.840263
 C         -53.321083     -144.721497      -50.419373
 C         -55.289116     -143.578552      -49.005665
 C         -53.997154     -143.366501      -49.865238
 H         -52.661995     -146.612305      -49.469780
 H         -52.440388     -145.139435      -48.465786
 H         -56.058788     -144.834869      -47.320095
 H         -54.508377     -144.004654      -46.936771
 H         -53.950703     -145.249817      -51.169731
 H         -52.409679     -144.376511      -50.920425
 H         -55.623447     -142.579880      -48.683174
 H         -56.140411     -144.019852      -49.652328
 H         -54.238640     -142.703339      -50.729343
 H         -53.238064     -142.759109      -49.214146
