20
 generated by VMD
 C         -68.317810     -195.117004      -65.225769
 N         -68.829926     -195.801193      -64.406204
 H         -71.491516     -194.666763      -66.692688
 H         -67.944557     -194.483231      -65.997597
 C         -72.098282     -193.912964      -67.153008
 C         -71.887360     -192.510117      -66.610542
 C         -73.382462     -194.262360      -67.792717
 C         -73.201637     -191.875580      -66.051704
 C         -74.646835     -193.822632      -66.917747
 C         -74.538269     -192.350845      -66.500542
 H         -71.474838     -191.850159      -67.512215
 H         -71.208618     -192.625244      -65.824272
 H         -73.364983     -193.807465      -68.898849
 H         -73.542595     -195.386063      -67.769707
 H         -73.009972     -190.882309      -66.332375
 H         -73.185081     -191.947815      -64.952919
 H         -74.587082     -194.433395      -65.991211
 H         -75.580017     -194.003418      -67.385017
 H         -74.844460     -191.813782      -67.365021
 H         -75.248833     -192.265961      -65.730644
