20
 generated by VMD
 C         -19.623875      -60.521835      -17.174952
 N         -19.294405      -60.739677      -16.098555
 H         -23.033297      -61.387032      -17.860035
 H         -19.764465      -60.342381      -18.175156
 C         -23.096493      -62.410412      -17.497208
 C         -23.944887      -63.201954      -18.444872
 C         -23.216022      -62.560791      -16.039152
 C         -24.436583      -64.538033      -17.936777
 C         -23.248827      -64.097313      -15.827133
 C         -24.433165      -64.816154      -16.420055
 H         -23.610373      -63.223152      -19.453375
 H         -24.875355      -62.676018      -18.707552
 H         -22.424295      -62.067879      -15.550929
 H         -24.099958      -62.033760      -15.604465
 H         -23.864794      -65.346863      -18.335424
 H         -25.449669      -64.737625      -18.373455
 H         -23.320070      -64.268021      -14.740502
 H         -22.312532      -64.554420      -16.240950
 H         -24.525221      -65.870399      -16.240246
 H         -25.278275      -64.270424      -16.045406
