20
 generated by VMD
 C         -70.311462     -182.705917      -65.430847
 N         -70.854721     -183.686630      -65.580025
 H         -68.349442     -181.477875      -62.749355
 H         -69.745758     -181.813324      -65.263847
 C         -67.573822     -181.581116      -61.963005
 C         -67.610016     -182.834076      -61.196827
 C         -66.949890     -180.360794      -61.459690
 C         -66.533524     -182.992142      -60.137913
 C         -65.799683     -180.475250      -60.488480
 C         -66.356476     -181.460175      -59.417343
 H         -67.572266     -183.854126      -61.745605
 H         -68.691734     -182.857758      -60.780743
 H         -66.709602     -179.787567      -62.398170
 H         -67.747986     -179.837677      -61.032211
 H         -65.647812     -183.290237      -60.679039
 H         -66.840149     -183.650101      -59.417625
 H         -65.510117     -179.557541      -59.962208
 H         -64.941521     -180.840958      -61.013691
 H         -65.660133     -181.677689      -58.561478
 H         -67.270920     -181.150238      -59.020245
