20
 generated by VMD
 C         -47.304260     -137.445786      -46.170036
 N         -47.159882     -136.745987      -47.135921
 H         -50.408199     -136.511215      -44.686008
 H         -47.390038     -137.932053      -45.163635
 C         -51.189960     -137.210327      -44.762707
 C         -51.439957     -137.898026      -46.029621
 C         -52.386356     -136.886856      -43.831619
 C         -52.088909     -139.307388      -45.741726
 C         -53.125095     -138.307938      -43.613892
 C         -53.435646     -139.105194      -44.893684
 H         -50.403309     -138.227005      -46.357758
 H         -51.924347     -137.305222      -46.792362
 H         -52.069408     -136.528473      -42.855343
 H         -53.192768     -136.300140      -44.346325
 H         -51.442501     -139.992203      -45.089325
 H         -52.212677     -139.685623      -46.741253
 H         -54.061539     -138.096802      -43.151875
 H         -52.422150     -138.930679      -42.972275
 H         -53.757565     -140.177673      -44.598698
 H         -54.134594     -138.577026      -45.500114
