20
 generated by VMD
 C         -50.040661     -144.397293      -44.334278
 N         -49.298847     -143.835648      -45.020134
 H         -52.556431     -142.495300      -45.734070
 H         -50.796101     -145.059662      -43.866535
 C         -53.014141     -142.146622      -46.627895
 C         -52.319447     -141.994049      -47.936047
 C         -54.310268     -141.505630      -46.382206
 C         -53.225536     -142.505005      -49.014000
 C         -55.320965     -141.942398      -47.586628
 C         -54.603321     -141.836945      -48.978844
 H         -51.340527     -142.557098      -47.787270
 H         -52.145721     -140.941010      -48.209187
 H         -54.828995     -141.833984      -45.485172
 H         -54.175301     -140.348038      -46.502872
 H         -53.532635     -143.660843      -48.918415
 H         -52.587200     -142.379959      -49.940147
 H         -56.345917     -141.410446      -47.623085
 H         -55.536469     -143.021454      -47.364574
 H         -55.308403     -142.242188      -49.825073
 H         -54.571075     -140.650040      -49.158783
