20
 generated by VMD
 C         -57.618069     -162.072998      -56.165710
 N         -57.156395     -162.133530      -57.260551
 H         -59.443405     -164.687363      -55.216938
 H         -58.138439     -162.009750      -55.210972
 C         -60.498028     -164.405258      -54.837440
 C         -60.819851     -164.362747      -53.396877
 C         -61.695789     -164.569351      -55.704895
 C         -61.812714     -163.263550      -53.101322
 C         -62.885628     -163.689728      -55.322350
 C         -63.093826     -163.425797      -53.882713
 H         -59.873436     -164.141159      -52.856667
 H         -61.123005     -165.372147      -53.138805
 H         -61.506889     -164.471512      -56.782436
 H         -61.977982     -165.636871      -55.567192
 H         -61.366116     -162.262482      -53.126732
 H         -62.116547     -163.548965      -52.013683
 H         -63.789246     -164.165604      -55.791492
 H         -62.919693     -162.774399      -55.822598
 H         -63.687134     -162.549026      -53.694649
 H         -63.597248     -164.291443      -53.440964
