20
 generated by VMD
 C         -15.904927      -47.645691       -6.707423
 N         -15.859940      -46.563778       -6.486661
 H         -16.676189      -47.810268      -10.172606
 H         -15.410274      -47.479916      -11.249159
 C         -16.405245      -47.179260      -11.014152
 C         -16.341869      -45.700741      -10.530721
 C         -17.322224      -47.595169      -12.220535
 C         -16.076551      -44.930931      -11.794253
 C         -16.908535      -46.773243      -13.411054
 C         -16.947243      -45.264744      -13.009956
 H         -15.540682      -45.601044       -9.775709
 H         -17.317276      -45.355312      -10.141228
 H         -17.165627      -48.663738      -12.455296
 H         -18.353203      -47.441265      -11.954258
 H         -15.091469      -45.165653      -12.174627
 H         -16.090311      -43.869724      -11.563791
 H         -17.630432      -46.982384      -14.294944
 H         -15.925634      -47.003609      -13.880382
 H         -16.776302      -44.581715      -13.898001
 H         -18.011282      -45.061520      -12.813866
