20
 generated by VMD
 C         -49.503975     -141.590103      -45.823307
 N         -49.321369     -141.981430      -44.760101
 H         -51.304482     -138.878586      -46.148499
 H         -49.647457     -141.059189      -46.777557
 C         -52.234871     -139.279221      -46.403740
 C         -52.917130     -139.468109      -47.746113
 C         -52.886230     -139.999313      -45.282864
 C         -53.113575     -140.952148      -48.188587
 C         -53.148434     -141.552094      -45.655708
 C         -53.919308     -141.695679      -46.977203
 H         -52.323502     -138.973984      -48.480320
 H         -53.907619     -138.964996      -47.764610
 H         -52.404530     -139.913589      -44.271725
 H         -53.909908     -139.472229      -45.208267
 H         -52.037373     -141.177307      -48.540771
 H         -53.832027     -141.045715      -49.008076
 H         -53.758110     -141.912567      -44.820736
 H         -52.170528     -142.147217      -45.824940
 H         -54.064217     -142.699402      -47.167664
 H         -54.867928     -141.231094      -46.980663
