20
 generated by VMD
 C         -43.111328     -120.774246      -35.377384
 N         -42.659519     -120.946693      -34.304642
 H         -44.321106     -121.326157      -38.832417
 H         -43.287968     -120.808182      -36.509216
 C         -44.140453     -120.269081      -38.693588
 C         -43.038570     -119.633034      -39.536236
 C         -45.210743     -119.315559      -38.098209
 C         -43.801109     -118.888229      -40.755527
 C         -45.920547     -118.770470      -39.327560
 C         -45.036644     -118.047691      -40.345318
 H         -42.382668     -120.391670      -40.061058
 H         -42.392105     -119.054512      -38.942810
 H         -45.856754     -119.989540      -37.465515
 H         -44.656380     -118.610329      -37.514538
 H         -44.038948     -119.683601      -41.499916
 H         -43.063389     -118.161423      -41.131100
 H         -46.711372     -118.004311      -38.908836
 H         -46.420071     -119.631050      -39.719349
 H         -45.686710     -117.855942      -41.260593
 H         -44.659233     -117.060265      -39.954414
