20
 generated by VMD
 C          -2.048393      -14.961923        1.739499
 N          -1.589190      -15.361490        2.681129
 H          -3.973839      -16.323269        0.371965
 H          -4.570353      -17.151146       -1.140591
 C          -4.858793      -16.760479       -0.142833
 C          -5.923188      -15.715604       -0.184035
 C          -5.299902      -17.935829        0.761829
 C          -7.204702      -16.288618       -0.802777
 C          -6.658431      -18.523502        0.316548
 C          -7.747800      -17.449972       -0.005407
 H          -5.553661      -14.911193       -0.782883
 H          -6.127282      -15.301188        0.838365
 H          -4.568488      -18.687326        0.778037
 H          -5.382710      -17.502224        1.736400
 H          -6.860684      -16.574919       -1.818944
 H          -7.989424      -15.507756       -1.016394
 H          -7.100607      -19.243797        1.005667
 H          -6.529518      -19.084164       -0.618855
 H          -8.665099      -17.958654       -0.315273
 H          -7.965907      -17.077608        0.980493
