20
 generated by VMD
 C         -20.716019      -52.297127       -9.641928
 N         -21.254950      -52.034447      -10.638914
 H         -18.984755      -49.839417      -11.268615
 H         -20.297144      -52.493725       -8.405014
 C         -18.087408      -49.902359      -11.829473
 C         -17.395269      -51.180874      -12.229088
 C         -17.423281      -48.646179      -12.342425
 C         -16.979067      -51.104004      -13.709459
 C         -16.545311      -48.714260      -13.601266
 C         -15.892717      -50.020390      -13.857213
 H         -18.128008      -51.973488      -12.271539
 H         -16.570940      -51.434975      -11.493245
 H         -18.180105      -47.863361      -12.466205
 H         -16.777477      -48.263672      -11.556005
 H         -17.842949      -50.904701      -14.351479
 H         -16.712807      -52.105404      -13.963626
 H         -15.751056      -47.893322      -13.651866
 H         -17.161663      -48.437275      -14.450768
 H         -15.440819      -50.013752      -14.841370
 H         -15.094484      -50.254002      -13.160222
