20
 generated by VMD
 C         -59.461632     -158.214294      -57.177650
 N         -58.488815     -158.550873      -57.665371
 H         -60.380253     -158.198456      -53.287388
 H         -60.373558     -157.933456      -56.646706
 C         -59.996212     -159.128342      -52.898262
 C         -58.580944     -159.129440      -52.466785
 C         -60.693935     -160.405045      -53.179836
 C         -58.342300     -160.149063      -51.406116
 C         -60.344463     -161.495667      -52.185356
 C         -58.921509     -161.531097      -51.707550
 H         -58.402885     -158.152283      -51.991203
 H         -57.843784     -159.350128      -53.223923
 H         -61.651348     -160.073288      -53.100655
 H         -60.543053     -160.732513      -54.208748
 H         -58.707493     -159.591049      -50.436985
 H         -57.304882     -160.284729      -51.437168
 H         -60.496235     -162.507538      -52.607159
 H         -60.992249     -161.356461      -51.374638
 H         -58.794189     -162.283676      -50.824150
 H         -58.296795     -161.892914      -52.538544
