20
 generated by VMD
 C         -48.703659     -126.383095      -38.665154
 N         -49.328236     -127.349899      -38.523304
 H         -46.082661     -123.581039      -38.236694
 H         -48.107006     -125.491707      -38.763256
 C         -45.684856     -123.549515      -39.330437
 C         -44.431412     -124.413429      -39.619213
 C         -45.673283     -122.275284      -40.077789
 C         -44.121418     -124.603088      -41.130871
 C         -45.358170     -122.311935      -41.568668
 C         -44.143250     -123.263123      -41.843006
 H         -44.482014     -125.385826      -39.099678
 H         -43.648064     -123.960243      -38.946896
 H         -46.736187     -121.853554      -40.061337
 H         -44.972492     -121.657089      -39.533333
 H         -44.688927     -125.343040      -41.690918
 H         -43.100937     -124.818275      -40.976055
 H         -45.109547     -121.305969      -41.825191
 H         -46.162994     -122.685013      -42.164406
 H         -44.178635     -123.482101      -42.913025
 H         -43.178669     -122.664650      -41.685219
