20
 generated by VMD
 C         -74.989891     -201.495743      -66.597778
 N         -75.235077     -201.826584      -65.502411
 H         -76.260742     -199.288635      -69.029915
 H         -74.872589     -201.155777      -67.654152
 C         -75.242065     -199.005768      -69.080544
 C         -74.987091     -197.792206      -68.187035
 C         -74.207336     -199.530869      -69.984512
 C         -73.473373     -197.758698      -68.015808
 C         -73.152542     -198.667252      -70.472839
 C         -72.712921     -197.630142      -69.356010
 H         -75.374786     -198.122971      -67.122147
 H         -75.473442     -196.830521      -68.564522
 H         -73.791908     -200.429657      -69.493591
 H         -74.654716     -199.977554      -70.819412
 H         -73.075752     -198.655243      -67.467133
 H         -73.204514     -196.940994      -67.353523
 H         -73.269478     -198.078766      -71.420975
 H         -72.315651     -199.385101      -70.819458
 H         -71.555710     -197.886871      -69.120667
 H         -72.851288     -196.698318      -69.773476
