20
 generated by VMD
 C         -12.558280      -28.535820       -5.931005
 N         -13.208136      -27.666737       -5.636177
 H         -11.637070      -31.474283       -3.799761
 H         -11.326732      -30.018448       -4.732980
 C         -10.815629      -30.848553       -4.144075
 C          -9.752152      -31.677456       -4.906486
 C         -10.226107      -30.222414       -2.881275
 C          -8.637856      -30.621058       -5.364699
 C          -9.007676      -29.315241       -3.190696
 C          -7.954876      -30.139954       -4.016701
 H         -10.140669      -32.127777       -5.781335
 H          -9.377788      -32.462902       -4.174180
 H         -11.063541      -29.667130       -2.369457
 H          -9.918263      -31.044241       -2.213196
 H          -9.098687      -29.801132       -5.918120
 H          -7.917701      -31.178518       -5.920984
 H          -8.582192      -28.968721       -2.265559
 H          -9.287048      -28.366632       -3.748221
 H          -7.097321      -29.391781       -4.223722
 H          -7.703835      -31.055779       -3.452439
