20
 generated by VMD
 C         -20.835781      -56.549809      -16.952911
 N         -21.248583      -55.660919      -17.536360
 H         -22.634418      -58.397678      -16.369846
 H         -20.665348      -57.188507      -16.135330
 C         -22.079800      -59.108612      -15.760857
 C         -22.132633      -59.079449      -14.313206
 C         -21.702248      -60.464481      -16.367065
 C         -21.005686      -59.821995      -13.645818
 C         -20.520315      -61.121738      -15.652676
 C         -20.868410      -61.315315      -14.220965
 H         -23.043633      -59.342171      -13.824527
 H         -22.080524      -57.999065      -14.102754
 H         -22.593374      -61.137280      -16.384750
 H         -21.410995      -60.377846      -17.444521
 H         -21.153877      -59.975044      -12.587099
 H         -20.069414      -59.219460      -13.740654
 H         -19.523790      -60.632538      -15.927707
 H         -20.331291      -62.166687      -16.041166
 H         -21.795959      -61.862080      -14.053695
 H         -19.987879      -61.696297      -13.657144
