20
 generated by VMD
 C         -23.657017      -55.003445      -14.998801
 N         -22.829636      -54.621391      -15.778733
 H         -20.174145      -54.585140      -15.366879
 H         -24.051003      -55.205563      -13.973860
 C         -19.379850      -55.208721      -14.866129
 C         -19.053413      -54.837402      -13.550009
 C         -18.949862      -56.539936      -15.467748
 C         -18.880047      -55.871632      -12.437016
 C         -19.264648      -57.599678      -14.426472
 C         -18.583149      -57.270836      -12.987976
 H         -19.742685      -54.055729      -13.211705
 H         -18.157084      -54.293331      -13.577797
 H         -19.465361      -56.772137      -16.418427
 H         -17.965549      -56.476906      -15.722173
 H         -19.738628      -55.828373      -11.764479
 H         -18.011309      -55.543495      -11.868697
 H         -18.882877      -58.563976      -14.803514
 H         -20.392120      -57.714157      -14.278203
 H         -18.866238      -58.003483      -12.195430
 H         -17.501446      -57.244396      -13.160892
