20
 generated by VMD
 C          -1.216232      -12.638103        1.246116
 N          -0.699529      -12.754582        0.296103
 H          -4.224730      -12.870613        1.200609
 H          -5.847465      -13.274436        0.574051
 C          -4.986678      -13.676857        1.193633
 C          -5.422031      -14.086391        2.567173
 C          -4.450327      -14.931745        0.473477
 C          -6.485507      -15.158676        2.593712
 C          -5.523616      -16.093180        0.444597
 C          -6.054889      -16.395416        1.871497
 H          -5.643320      -13.198979        3.141048
 H          -4.497081      -14.392316        3.136340
 H          -4.135282      -14.523935       -0.544175
 H          -3.500904      -15.288158        1.000985
 H          -7.429715      -14.738776        2.244268
 H          -6.685448      -15.360139        3.626268
 H          -5.068690      -16.981970        0.025631
 H          -6.336001      -15.792229       -0.194832
 H          -6.787010      -17.250553        1.816876
 H          -5.164252      -16.860609        2.379029
