20
 generated by VMD
 C          -3.453186      -19.854687        3.452334
 N          -3.895616      -18.900755        3.072423
 H          -5.355956      -19.803585       -0.039034
 H          -6.015397      -21.119009       -0.870669
 C          -6.115238      -20.028059       -0.798020
 C          -5.640281      -19.512484       -2.143490
 C          -7.475773      -19.640181       -0.330354
 C          -6.771816      -19.584614       -3.141071
 C          -8.577752      -19.567846       -1.349740
 C          -8.027959      -18.889885       -2.574444
 H          -4.768888      -20.063643       -2.460340
 H          -5.306415      -18.473675       -2.122117
 H          -7.809350      -20.392847        0.424451
 H          -7.444255      -18.694019        0.316805
 H          -7.004038      -20.661562       -3.334920
 H          -6.560416      -19.215761       -4.123454
 H          -9.435744      -19.017092       -0.995473
 H          -8.924944      -20.595818       -1.562402
 H          -8.785335      -18.806425       -3.371614
 H          -7.783098      -17.857641       -2.358702
