20
 generated by VMD
 C         -13.462017      -28.737118       -6.602717
 N         -13.181005      -28.818962       -7.676708
 H         -11.935874      -30.813660       -4.923289
 H         -10.503770      -29.745003       -4.555015
 C         -10.914186      -30.794619       -4.578447
 C         -10.122938      -31.528349       -5.616288
 C         -10.901975      -31.491150       -3.258697
 C          -8.693346      -31.803120       -5.130685
 C          -9.506788      -31.642431       -2.728195
 C          -8.627366      -32.405174       -3.633585
 H         -10.014285      -31.052961       -6.568988
 H         -10.722704      -32.426563       -5.778291
 H         -11.541489      -30.983938       -2.575274
 H         -11.283643      -32.491245       -3.420122
 H          -8.143279      -30.856321       -5.071191
 H          -8.123234      -32.432484       -5.813634
 H          -9.587459      -32.187870       -1.724909
 H          -9.078860      -30.694080       -2.550352
 H          -7.562421      -32.487591       -3.299192
 H          -9.078751      -33.441872       -3.740348
