20
 generated by VMD
 C         -39.624977     -105.512535      -37.294361
 N         -40.311527     -104.655800      -36.964191
 H         -39.254246     -108.577309      -35.438278
 H         -38.886795     -106.301628      -37.493011
 C         -39.472252     -108.774330      -34.347488
 C         -38.439598     -108.249695      -33.389408
 C         -40.628761     -109.509995      -34.025101
 C         -38.893436     -108.178474      -31.915434
 C         -41.001862     -109.516167      -32.458084
 C         -39.712013     -109.473465      -31.644415
 H         -38.062660     -107.315353      -33.905205
 H         -37.593849     -108.967964      -33.480541
 H         -41.560314     -109.193893      -34.654861
 H         -40.420506     -110.567101      -34.265869
 H         -39.548195     -107.254623      -31.774818
 H         -38.051743     -108.108963      -31.144135
 H         -41.679462     -110.344109      -32.296818
 H         -41.466507     -108.523682      -32.343307
 H         -40.040688     -109.633881      -30.592548
 H         -39.154068     -110.426781      -31.989613
