20
 generated by VMD
 C         -10.659363      -25.624285       -0.834829
 N         -11.150693      -24.668028       -0.567710
 H          -6.690314      -25.635773       -0.922996
 H          -8.381351      -25.325378       -1.403174
 C          -7.367268      -25.214241       -1.735543
 C          -7.179858      -26.118233       -3.003565
 C          -7.103879      -23.709398       -1.971227
 C          -7.914735      -25.548609       -4.250623
 C          -7.804303      -23.284985       -3.215463
 C          -7.473047      -24.035593       -4.460507
 H          -7.468156      -27.146980       -2.824773
 H          -6.133571      -26.117687       -3.235836
 H          -7.370888      -23.134329       -1.098621
 H          -6.018075      -23.520573       -2.185271
 H          -8.965386      -25.642797       -4.099221
 H          -7.656432      -26.144207       -5.098108
 H          -7.599588      -22.190834       -3.278117
 H          -8.896699      -23.330929       -3.058887
 H          -7.950675      -23.621662       -5.364144
 H          -6.372228      -23.987940       -4.781546
