20
 generated by VMD
 C         -72.542084     -198.783051      -65.538597
 N         -73.546448     -199.259918      -65.890244
 H         -71.055908     -196.274963      -67.371834
 H         -71.594673     -198.308228      -65.537247
 C         -72.051872     -196.071106      -67.782326
 C         -72.936569     -195.141174      -67.084717
 C         -72.451897     -196.669968      -69.077972
 C         -74.277313     -195.013000      -67.702530
 C         -73.907028     -197.177078      -68.950089
 C         -74.802605     -196.436295      -67.995995
 H         -72.559853     -194.154892      -67.180397
 H         -72.804718     -195.269638      -65.966736
 H         -72.418564     -195.949371      -69.928032
 H         -71.811966     -197.535568      -69.299019
 H         -74.314041     -194.413681      -68.656380
 H         -74.904472     -194.442993      -67.017433
 H         -73.844986     -198.156647      -68.537407
 H         -74.378395     -197.424011      -69.935753
 H         -75.805832     -196.369904      -68.229942
 H         -74.848381     -196.903671      -66.903221
