20
 generated by VMD
 C         -50.606888     -129.149689      -44.223240
 N         -50.934361     -130.207047      -44.375591
 H         -49.023289     -127.917076      -41.402248
 H         -50.449371     -128.108932      -43.925617
 C         -48.105911     -128.441742      -41.116581
 C         -47.784595     -129.954895      -41.057621
 C         -47.009163     -127.351028      -40.825836
 C         -46.400082     -130.275269      -41.534084
 C         -45.670887     -127.811485      -41.451103
 C         -45.407810     -129.245392      -40.984627
 H         -48.602551     -130.542770      -41.666462
 H         -48.019409     -130.187729      -40.070988
 H         -47.345367     -126.413956      -41.046612
 H         -47.013752     -127.398956      -39.673420
 H         -46.353912     -130.497772      -42.617580
 H         -46.066479     -131.303741      -41.250240
 H         -44.925159     -127.170929      -41.011421
 H         -45.720329     -127.629288      -42.516693
 H         -44.397682     -129.417786      -41.308212
 H         -45.549145     -129.341873      -39.848648
