20
 generated by VMD
 C         -51.476902     -129.769455      -45.209660
 N         -51.651554     -130.036346      -46.324177
 H         -48.480865     -130.349670      -43.484295
 H         -50.924728     -129.425262      -44.325127
 C         -47.909622     -130.457504      -42.530800
 C         -48.069733     -131.730774      -41.915428
 C         -47.570580     -129.221024      -41.707989
 C         -46.836632     -132.067154      -41.151424
 C         -46.275375     -129.532394      -40.955086
 C         -46.415474     -130.907227      -40.154362
 H         -48.285122     -132.369827      -42.822651
 H         -48.982601     -131.778946      -41.335785
 H         -47.412361     -128.354706      -42.448856
 H         -48.436436     -129.035843      -40.959248
 H         -45.941277     -132.416626      -41.745373
 H         -46.834526     -132.915176      -40.458458
 H         -46.065510     -128.625931      -40.350967
 H         -45.568985     -129.563507      -41.699913
 H         -45.402538     -131.028366      -39.812454
 H         -47.201664     -130.849396      -39.353363
