20
 generated by VMD
 C         -68.278732     -179.608917      -58.499081
 N         -67.525078     -179.243195      -57.703773
 H         -66.116844     -176.727417      -59.392162
 H         -69.052017     -179.833420      -59.253632
 C         -65.579369     -175.818039      -59.586864
 C         -66.023010     -174.690369      -60.452892
 C         -64.033607     -176.087952      -59.654224
 C         -65.151619     -173.494232      -60.600605
 C         -63.279709     -174.702271      -59.547195
 C         -63.662228     -173.777328      -60.695545
 H         -67.050926     -174.389145      -60.080902
 H         -66.217819     -174.850571      -61.509365
 H         -63.774307     -176.749802      -58.824039
 H         -63.864975     -176.629593      -60.499752
 H         -65.150803     -172.719238      -59.734207
 H         -65.379677     -172.931168      -61.593197
 H         -62.280014     -174.912354      -59.867985
 H         -63.271214     -174.140533      -58.542416
 H         -63.129204     -172.823715      -60.638493
 H         -63.465023     -174.069931      -61.675468
