20
 generated by VMD
 C         -68.497437     -193.603348      -64.858475
 N         -68.379143     -194.611465      -65.448761
 H         -70.731773     -193.197098      -67.252319
 H         -68.265060     -192.683792      -64.236580
 C         -71.683624     -192.805283      -66.954460
 C         -71.708717     -191.357101      -66.366692
 C         -72.984596     -193.466904      -67.167862
 C         -73.150291     -190.907852      -66.097832
 C         -73.765694     -193.404770      -65.758476
 C         -73.928581     -191.962921      -65.269287
 H         -71.110306     -190.764694      -66.969009
 H         -71.056091     -191.576340      -65.428291
 H         -73.584206     -193.105881      -67.969505
 H         -72.807564     -194.528534      -67.455620
 H         -73.632217     -190.644180      -67.063438
 H         -73.143501     -189.893494      -65.727638
 H         -73.407936     -194.061646      -64.942268
 H         -74.735519     -193.854538      -65.939941
 H         -74.946945     -191.781845      -65.217506
 H         -73.681091     -191.842804      -64.136520
