20
 generated by VMD
 C         -49.946453     -142.806778      -45.410061
 N         -48.830132     -143.112045      -45.277611
 H         -51.857399     -139.853897      -45.551739
 H         -50.937756     -142.500244      -45.598125
 C         -52.629658     -140.124954      -46.221539
 C         -52.243996     -140.418549      -47.799061
 C         -54.042812     -140.290756      -45.932003
 C         -52.748425     -141.775574      -48.223698
 C         -54.528233     -141.743546      -46.315254
 C         -54.256550     -142.040375      -47.791122
 H         -51.119820     -140.334671      -47.985756
 H         -52.631721     -139.545151      -48.313007
 H         -54.138401     -140.147034      -44.855774
 H         -54.639381     -139.696732      -46.504993
 H         -52.054180     -142.681137      -47.889282
 H         -52.703960     -141.861008      -49.393501
 H         -55.586159     -141.678909      -45.895332
 H         -53.965549     -142.554443      -45.776470
 H         -54.579678     -143.081253      -48.162922
 H         -54.905022     -141.382278      -48.513687
