20
 generated by VMD
 C         -18.284481      -49.143887       -7.874029
 N         -19.163301      -49.824375       -7.992999
 H         -16.301908      -47.319607      -10.032288
 H         -16.778996      -48.910370      -10.699174
 C         -16.484766      -47.864769      -10.982701
 C         -15.222482      -47.906807      -11.858901
 C         -17.738361      -47.186951      -11.589049
 C         -15.595347      -48.298409      -13.332189
 C         -17.982126      -47.701668      -12.982185
 C         -16.787102      -47.579807      -13.902259
 H         -14.615311      -48.809017      -11.572787
 H         -14.755095      -46.938286      -11.718947
 H         -18.619953      -47.377621      -10.983196
 H         -17.495974      -46.120739      -11.678242
 H         -15.724732      -49.397800      -13.396386
 H         -14.770868      -48.011318      -13.978716
 H         -18.867098      -47.166855      -13.410589
 H         -18.216024      -48.717007      -12.985083
 H         -17.029367      -48.022526      -14.888234
 H         -16.582556      -46.485252      -14.102825
