20
 generated by VMD
 C          -2.820993      -17.863106        2.777697
 N          -2.364058      -17.465134        1.836667
 H          -5.245034      -18.888111        0.917871
 H          -5.310841      -19.779081       -0.580366
 C          -5.818270      -19.032606        0.019290
 C          -5.751383      -17.725542       -0.773561
 C          -7.245320      -19.413155        0.360372
 C          -6.464677      -17.899458       -2.097438
 C          -8.110254      -19.468958       -0.932877
 C          -8.011702      -18.169058       -1.813987
 H          -4.668902      -17.477852       -0.901170
 H          -6.153320      -16.926165       -0.114179
 H          -7.252929      -20.332733        0.996111
 H          -7.761899      -18.628675        1.036699
 H          -6.087867      -18.736586       -2.722352
 H          -6.280164      -17.064253       -2.767372
 H          -9.154818      -19.618238       -0.694733
 H          -7.898274      -20.362419       -1.532673
 H          -8.451076      -18.432270       -2.786951
 H          -8.579638      -17.350422       -1.386916
