20
 generated by VMD
 C         -50.872684     -129.993500      -44.925919
 N         -51.662220     -129.235458      -45.388718
 H         -48.621284     -129.610962      -43.262867
 H         -50.034046     -130.577682      -44.583138
 C         -48.102016     -129.867630      -42.314003
 C         -47.972168     -131.217697      -41.569054
 C         -47.519432     -128.605728      -41.643715
 C         -46.486912     -131.409912      -41.100639
 C         -46.088772     -128.953918      -41.083557
 C         -45.975224     -130.244690      -40.327271
 H         -48.262047     -132.087784      -42.130432
 H         -48.670689     -131.147675      -40.654137
 H         -47.478638     -127.730560      -42.403141
 H         -48.149059     -128.337967      -40.720150
 H         -45.888790     -131.496124      -42.060703
 H         -46.649586     -132.404602      -40.545311
 H         -45.732330     -128.173065      -40.478416
 H         -45.347473     -129.031204      -41.874420
 H         -44.963280     -130.565491      -40.136467
 H         -46.368916     -130.128372      -39.299000
