20
 generated by VMD
 C         -78.665459     -209.914459      -76.643814
 N         -77.659882     -210.188431      -77.187523
 H         -79.547722     -211.510986      -74.308281
 H         -79.619774     -209.586319      -76.110359
 C         -79.584091     -212.156723      -73.484917
 C         -78.246162     -212.358704      -72.782310
 C         -80.636192     -213.156860      -73.137833
 C         -78.313255     -212.761154      -71.241753
 C         -80.690521     -213.312653      -71.637878
 C         -79.416435     -213.928162      -70.938240
 H         -77.722610     -211.398529      -72.907028
 H         -77.743546     -213.152634      -73.274307
 H         -81.597435     -212.840424      -73.574524
 H         -80.537659     -214.148880      -73.635223
 H         -78.736458     -211.957733      -70.617683
 H         -77.309990     -213.111526      -70.874939
 H         -81.333450     -214.110825      -71.386986
 H         -80.968971     -212.274216      -71.057045
 H         -79.509811     -214.076309      -69.900131
 H         -79.138924     -214.750000      -71.544052
