20
 generated by VMD
 C          -1.624672       -8.409555        0.423732
 N          -2.424378       -7.687021        0.240175
 H          -3.477331       -9.216412        2.342312
 H          -2.196481      -10.313978        2.156460
 C          -3.100751      -10.230689        2.716871
 C          -3.939387      -11.433058        2.241796
 C          -2.910560      -10.234168        4.289151
 C          -3.515127      -12.744673        2.861786
 C          -2.405895      -11.576399        4.846039
 C          -3.498947      -12.616193        4.381466
 H          -3.931771      -11.439359        1.159492
 H          -5.002573      -11.211035        2.405992
 H          -2.289337       -9.413199        4.690840
 H          -3.965612      -10.054942        4.644309
 H          -2.565470      -13.013165        2.417031
 H          -4.252695      -13.470692        2.501364
 H          -2.384207      -11.529188        5.941836
 H          -1.417313      -11.916559        4.440594
 H          -3.208907      -13.573318        4.807671
 H          -4.508547      -12.458966        4.814340
