20
 generated by VMD
 C         -37.956928     -114.355301      -35.362377
 N         -38.723698     -115.169449      -35.014038
 H         -41.418560     -114.888321      -36.697834
 H         -37.170509     -113.565598      -35.566723
 C         -42.393482     -115.173370      -36.840981
 C         -42.896248     -115.048164      -38.235012
 C         -43.468460     -115.007118      -35.803905
 C         -44.114468     -115.849838      -38.546062
 C         -44.784019     -115.663902      -36.123226
 C         -45.244740     -115.615433      -37.589180
 H         -42.143837     -115.247681      -39.001232
 H         -42.988663     -113.993324      -38.399448
 H         -43.180988     -115.420158      -34.858086
 H         -43.751560     -113.966370      -35.827335
 H         -43.946247     -116.949318      -38.561577
 H         -44.502625     -115.619293      -39.586597
 H         -45.426952     -115.032455      -35.556896
 H         -44.822693     -116.708717      -35.902592
 H         -46.023514     -116.430367      -37.819851
 H         -45.758556     -114.762024      -37.719341
