20
 generated by VMD
 C         -50.640400     -127.708466      -40.804768
 N         -51.256302     -128.308105      -41.565754
 H         -47.274246     -127.802078      -41.232300
 H         -49.839672     -127.164848      -40.324234
 C         -46.618973     -127.009171      -41.046528
 C         -45.522675     -127.479309      -40.059036
 C         -46.799297     -125.605591      -41.235516
 C         -44.238091     -126.996941      -40.673542
 C         -45.500401     -125.082626      -41.840282
 C         -44.257175     -125.425987      -41.027958
 H         -45.619469     -128.564514      -40.094463
 H         -45.838455     -127.155327      -39.131081
 H         -47.613064     -125.503738      -41.839355
 H         -47.177818     -125.032585      -40.325554
 H         -44.025906     -127.485008      -41.656784
 H         -43.298386     -127.276222      -40.156170
 H         -45.641727     -124.024483      -42.147049
 H         -45.598965     -125.653000      -42.749882
 H         -43.389862     -125.138924      -41.686321
 H         -44.282932     -124.786530      -40.145592
