20
 generated by VMD
 C         -32.249397      -92.938187      -25.917824
 N         -32.488907      -94.041908      -25.570324
 H         -33.893753      -95.009697      -28.669170
 H         -31.987543      -91.894722      -26.335148
 C         -34.110806      -93.957756      -28.894230
 C         -35.300892      -93.366905      -28.163826
 C         -33.664032      -93.100174      -30.070965
 C         -35.345654      -91.832054      -27.977228
 C         -33.575493      -91.621811      -29.650349
 C         -34.984390      -91.053925      -29.226418
 H         -35.380009      -93.974792      -27.279432
 H         -36.208584      -93.610886      -28.750183
 H         -32.707077      -93.402992      -30.491320
 H         -34.419922      -93.342972      -30.815046
 H         -34.580494      -91.502594      -27.290741
 H         -36.246853      -91.408333      -27.640146
 H         -33.136143      -90.973999      -30.373577
 H         -32.811150      -91.624115      -28.827686
 H         -34.689331      -90.028152      -29.029373
 H         -35.776917      -91.258446      -30.048195
