20
 generated by VMD
 C         -11.397895      -33.313412       -8.574926
 N         -10.561843      -33.809277       -9.155300
 H         -12.577332      -34.391773       -6.944871
 H         -12.919011      -34.780960       -5.301445
 C         -12.793377      -35.235081       -6.321980
 C         -11.594796      -36.206009       -6.374029
 C         -14.123777      -35.936752       -6.719890
 C         -11.903089      -37.390350       -5.470176
 C         -14.402528      -37.162193       -5.875031
 C         -13.204478      -38.152477       -5.896672
 H         -10.683950      -35.694897       -5.952515
 H         -11.366579      -36.583096       -7.377669
 H         -14.981868      -35.245586       -6.612803
 H         -13.965874      -36.297184       -7.775363
 H         -12.062571      -37.156887       -4.387101
 H         -11.075770      -38.127575       -5.562755
 H         -15.169889      -37.671036       -6.361650
 H         -14.713608      -36.881741       -4.806605
 H         -13.357738      -38.924381       -5.116190
 H         -13.064208      -38.618610       -6.847659
