20
 generated by VMD
 C         -50.944614     -128.082443      -41.738468
 N         -51.975628     -128.583603      -41.850468
 H         -47.265797     -128.134552      -41.296150
 H         -50.158768     -127.461601      -41.367496
 C         -46.760464     -127.407204      -40.739170
 C         -45.467159     -127.870430      -40.077862
 C         -46.843830     -125.977043      -41.182045
 C         -44.223312     -127.412262      -40.823067
 C         -45.562832     -125.540123      -41.914185
 C         -44.263836     -125.871513      -41.112305
 H         -45.496025     -129.036957      -40.078686
 H         -45.473316     -127.609154      -39.049309
 H         -47.655315     -125.967033      -41.953682
 H         -47.032612     -125.414696      -40.158035
 H         -44.423763     -127.827461      -41.835850
 H         -43.356323     -127.729164      -40.200645
 H         -45.677162     -124.417686      -42.077129
 H         -45.561382     -126.047058      -42.935467
 H         -43.470894     -125.452751      -41.683880
 H         -44.304256     -125.250374      -40.261810
