20
 generated by VMD
 C         -11.830239      -41.865875       -7.004408
 N         -11.354630      -40.867481       -6.893753
 H         -14.295559      -40.859367       -8.342699
 H         -15.230410      -40.233807       -9.621233
 C         -15.001572      -41.183342       -9.044630
 C         -16.280870      -41.698841       -8.395000
 C         -14.355709      -42.131622      -10.053685
 C         -17.281307      -42.383671       -9.320223
 C         -15.389531      -42.658543      -11.077493
 C         -16.570723      -43.321110      -10.323266
 H         -16.707848      -40.784084       -7.938053
 H         -15.925996      -42.392975       -7.583715
 H         -13.635473      -41.612831      -10.695686
 H         -13.833285      -43.017731       -9.490261
 H         -17.729897      -41.578655       -9.907329
 H         -18.022499      -43.024422       -8.779474
 H         -14.882135      -43.440269      -11.764748
 H         -15.754595      -41.959747      -11.762939
 H         -17.276308      -43.680622      -11.075529
 H         -16.311289      -44.270615       -9.844088
