20
 generated by VMD
 C          -1.621258      -13.998684        1.452531
 N          -1.887483      -12.913376        1.398059
 H          -3.736467      -17.304394        1.596319
 H          -4.113524      -17.136051       -0.180305
 C          -4.531507      -17.144079        0.840021
 C          -5.193498      -15.751065        1.095923
 C          -5.582283      -18.270384        0.892656
 C          -6.403462      -15.530330        0.130756
 C          -6.803386      -17.961050        0.012601
 C          -7.432853      -16.580360        0.299914
 H          -4.524726      -14.890940        0.929186
 H          -5.554730      -15.580869        2.144008
 H          -5.094814      -19.104303        0.528383
 H          -5.933999      -18.304598        1.892270
 H          -6.061492      -15.412127       -0.847759
 H          -6.789880      -14.562973        0.398032
 H          -7.525305      -18.687414        0.316180
 H          -6.614538      -18.072638       -1.074560
 H          -8.208685      -16.407705       -0.477370
 H          -7.978659      -16.611664        1.256024
