20
 generated by VMD
 C         -13.052948      -31.131268       -8.225527
 N         -12.617901      -30.138706       -8.401682
 H         -11.559281      -33.079304       -7.165594
 H         -12.251340      -32.457993       -5.615003
 C         -11.543662      -33.190075       -6.056887
 C         -10.114533      -33.185646       -5.490653
 C         -12.229218      -34.558361       -5.877672
 C         -10.011740      -33.801048       -4.034850
 C         -12.139359      -35.135975       -4.487785
 C         -10.723668      -35.172363       -3.965707
 H          -9.667947      -32.199116       -5.518679
 H          -9.512068      -33.911236       -6.125139
 H         -13.282571      -34.531540       -6.144676
 H         -11.735639      -35.301773       -6.480148
 H         -10.490191      -33.118847       -3.318505
 H          -8.954655      -33.866123       -3.840114
 H         -12.610999      -36.169319       -4.555296
 H         -12.677778      -34.567394       -3.800070
 H         -10.781650      -35.550797       -2.910027
 H         -10.191800      -35.874859       -4.568299
