20
 generated by VMD
 C         -10.458549      -35.595924       -8.143703
 N         -10.150560      -36.035671       -9.098644
 H         -13.539679      -37.016861       -6.596526
 H         -14.703910      -38.111450       -5.883762
 C         -14.070565      -38.012115       -6.727431
 C         -13.097754      -39.213398       -6.857375
 C         -15.029900      -37.998386       -7.903037
 C         -13.859241      -40.574493       -6.903876
 C         -15.760992      -39.323410       -8.086024
 C         -14.879279      -40.618591       -8.074981
 H         -12.399878      -39.101948       -6.008657
 H         -12.464412      -39.124184       -7.739037
 H         -15.825928      -37.206264       -7.879086
 H         -14.546779      -37.862858       -8.873558
 H         -14.436201      -40.770836       -5.925549
 H         -13.191677      -41.431534       -6.952997
 H         -16.425806      -39.313259       -9.009400
 H         -16.414454      -39.378460       -7.244027
 H         -15.507071      -41.554356       -7.982579
 H         -14.326807      -40.735733       -9.022377
