20
 generated by VMD
 C         -11.952089      -31.492023       -8.260124
 N         -12.051962      -30.644199       -7.517529
 H         -11.668877      -34.696648       -7.983284
 H         -12.869550      -34.082588       -6.780422
 C         -11.948414      -34.661163       -6.911998
 C         -10.819165      -33.923641       -6.102621
 C         -12.158631      -36.027405       -6.275366
 C         -11.209149      -33.714741       -4.603817
 C         -12.512582      -35.915878       -4.795066
 C         -11.561521      -35.095634       -4.018211
 H         -10.568181      -32.904694       -6.554552
 H          -9.961930      -34.577381       -6.127797
 H         -12.963357      -36.590939       -6.768039
 H         -11.245234      -36.628117       -6.297227
 H         -12.158122      -33.172237       -4.630536
 H         -10.346976      -33.171379       -4.129427
 H         -12.616309      -36.991295       -4.430981
 H         -13.462995      -35.491570       -4.775867
 H         -11.927940      -34.962067       -2.974844
 H         -10.591750      -35.647968       -3.911687
