20
 generated by VMD
 C         -68.311218     -185.189331      -67.397896
 N         -67.621117     -186.015488      -66.950706
 H         -69.781410     -185.174103      -64.535675
 H         -68.938492     -184.553635      -67.924736
 C         -69.672768     -185.510712      -63.540287
 C         -70.738335     -185.157379      -62.553135
 C         -68.623161     -186.469574      -63.209175
 C         -70.486328     -185.385681      -61.066315
 C         -68.360062     -186.513351      -61.734489
 C         -69.583290     -186.648666      -60.895260
 H         -71.707306     -185.655396      -62.661411
 H         -71.098549     -184.106186      -62.656574
 H         -68.890121     -187.559097      -63.533295
 H         -67.754959     -186.230835      -63.932644
 H         -71.373970     -185.323822      -60.455631
 H         -69.943390     -184.552887      -60.560452
 H         -67.857498     -185.573441      -61.377464
 H         -67.621590     -187.366241      -61.495541
 H         -70.302597     -187.496384      -61.261242
 H         -69.417419     -186.626495      -59.794102
