20
 generated by VMD
 C         -19.788969      -59.942993      -17.049673
 N         -18.864796      -60.635536      -16.933712
 H         -22.860058      -60.773666      -17.188293
 H         -20.606113      -59.226059      -17.130896
 C         -23.233427      -61.820316      -17.085480
 C         -23.871469      -62.709873      -18.120691
 C         -23.423344      -62.306572      -15.706503
 C         -23.828245      -64.269768      -17.854322
 C         -23.102310      -63.809132      -15.433900
 C         -24.156065      -64.493423      -16.287035
 H         -23.396378      -62.544987      -19.080383
 H         -24.868423      -62.440659      -18.109144
 H         -22.732828      -61.702782      -15.077704
 H         -24.440725      -62.140774      -15.506446
 H         -22.768066      -64.628433      -17.956280
 H         -24.548801      -64.913292      -18.341324
 H         -23.296373      -64.028496      -14.379725
 H         -22.055527      -64.107414      -15.527848
 H         -24.050859      -65.531860      -15.978248
 H         -25.171614      -64.242760      -16.103662
