20
 generated by VMD
 C         -21.456198      -65.678253      -17.132727
 N         -20.897686      -66.169464      -16.185406
 H         -24.615206      -63.681801      -18.185535
 H         -22.032471      -65.493614      -17.937571
 C         -24.652063      -64.726166      -18.407867
 C         -24.494219      -65.205017      -19.820168
 C         -25.230133      -65.572449      -17.273693
 C         -24.272575      -66.748871      -19.907684
 C         -25.101704      -67.120399      -17.462585
 C         -25.098961      -67.634613      -18.959896
 H         -23.545755      -64.757721      -20.214495
 H         -25.225332      -64.752655      -20.371904
 H         -24.673534      -65.370461      -16.365673
 H         -26.308552      -65.333702      -17.016220
 H         -23.134455      -66.894615      -19.884180
 H         -24.532900      -66.990402      -20.978756
 H         -25.987247      -67.392303      -16.863708
 H         -24.234924      -67.527245      -16.890657
 H         -24.749868      -68.705002      -19.054844
 H         -26.094048      -67.700272      -19.380993
