20
 generated by VMD
 C         -46.695683     -124.687149      -37.585686
 N         -46.922371     -124.610451      -36.429520
 H         -44.701248     -122.199684      -37.717014
 H         -46.673393     -124.884827      -38.638336
 C         -44.718521     -122.176666      -38.834736
 C         -43.513397     -122.252289      -39.598057
 C         -45.919693     -121.444206      -39.427334
 C         -43.647987     -122.448875      -41.152058
 C         -46.099812     -121.667343      -40.917835
 C         -44.723106     -121.526360      -41.693008
 H         -42.904690     -122.987144      -39.071873
 H         -42.933418     -121.240562      -39.412601
 H         -46.891647     -121.610016      -38.812775
 H         -45.664974     -120.384865      -39.345623
 H         -43.930412     -123.496483      -41.301163
 H         -42.688732     -122.238403      -41.724468
 H         -46.948544     -121.175514      -41.417549
 H         -46.240753     -122.654213      -40.925625
 H         -44.795769     -121.658234      -42.779282
 H         -44.242470     -120.558319      -41.366272
