20
 generated by VMD
 C         -28.540182      -86.704666      -26.836742
 N         -27.544689      -87.190247      -26.457584
 H         -31.002611      -88.398087      -25.255220
 H         -29.542038      -86.192146      -26.988190
 C         -31.940393      -88.002045      -25.619354
 C         -33.109943      -88.060547      -24.656258
 C         -32.126301      -87.926895      -27.065275
 C         -34.530338      -87.649231      -25.275333
 C         -33.584930      -87.436943      -27.524914
 C         -34.690216      -88.029091      -26.770077
 H         -32.882435      -87.407486      -23.738085
 H         -33.286663      -89.178299      -24.444639
 H         -31.392458      -87.313332      -27.594627
 H         -32.119667      -88.930450      -27.508253
 H         -34.631798      -86.584221      -25.169983
 H         -35.370522      -87.915146      -24.642311
 H         -33.598568      -87.574593      -28.621902
 H         -33.581413      -86.328827      -27.472643
 H         -35.706146      -87.597504      -27.131840
 H         -34.670757      -89.235199      -26.961437
