20
 generated by VMD
 C         -39.925301     -100.629105      -30.840345
 N         -40.430321      -99.927116      -31.630857
 H         -37.385342     -103.013412      -31.099316
 H         -39.596775     -101.531822      -30.207060
 C         -36.726505     -102.100510      -31.063257
 C         -36.440964     -101.442680      -32.415680
 C         -35.511410     -101.805573      -30.100731
 C         -36.337223      -99.910492      -32.340797
 C         -35.587254     -100.306602      -29.978716
 C         -35.260761      -99.584137      -31.394697
 H         -37.195820     -101.816589      -33.091892
 H         -35.510998     -101.935417      -32.797909
 H         -35.734837     -102.126167      -29.020325
 H         -34.527584     -102.132217      -30.498775
 H         -37.251484      -99.504974      -31.982378
 H         -36.285439      -99.545715      -33.395931
 H         -34.915131      -99.930588      -29.177519
 H         -36.566578     -100.043762      -29.677393
 H         -35.207508      -98.492516      -31.192022
 H         -34.278572      -99.851990      -31.912588
