20
 generated by VMD
 C         -51.196331     -145.409134      -44.149853
 N         -51.229431     -146.424545      -44.768078
 H         -53.927284     -145.123566      -46.947567
 H         -51.389587     -144.494629      -43.565102
 C         -53.698212     -144.158173      -47.374165
 C         -52.677967     -144.043335      -48.601562
 C         -54.718025     -143.108368      -47.252129
 C         -53.403706     -143.817596      -49.907310
 C         -55.502949     -142.887787      -48.639469
 C         -54.434219     -142.625061      -49.764256
 H         -52.183033     -144.966217      -48.656483
 H         -51.988411     -143.213882      -48.338722
 H         -55.268097     -143.342194      -46.264648
 H         -54.245838     -142.150223      -47.062740
 H         -53.850819     -144.741089      -50.309277
 H         -52.597328     -143.582413      -50.562855
 H         -56.320194     -142.216522      -48.653160
 H         -56.123680     -143.808365      -48.839848
 H         -54.955223     -142.598862      -50.691296
 H         -53.906181     -141.697662      -49.616989
