20
 generated by VMD
 C         -21.947746      -55.558872      -17.635117
 N         -20.991413      -55.739746      -18.164320
 H         -21.998117      -57.246429      -14.370849
 H         -22.589598      -55.272884      -16.724291
 C         -21.518259      -58.226685      -14.495897
 C         -21.360611      -58.863171      -13.172709
 C         -21.389349      -58.994091      -15.803510
 C         -21.056971      -60.304615      -13.289460
 C         -20.312691      -59.970951      -15.695206
 C         -19.900864      -60.420776      -14.308753
 H         -22.383080      -58.740112      -12.676568
 H         -20.603300      -58.399391      -12.510334
 H         -22.281683      -59.559280      -15.937129
 H         -21.309408      -58.290085      -16.631447
 H         -21.941603      -60.868851      -13.615772
 H         -20.734772      -60.659702      -12.323465
 H         -19.431835      -59.560581      -16.152025
 H         -20.628248      -60.875999      -16.183474
 H         -19.516214      -61.459930      -14.311239
 H         -19.066008      -59.850212      -13.931519
