20
 generated by VMD
 C         -40.542110     -117.121689      -34.524380
 N         -39.488045     -116.695221      -34.762371
 H         -41.895161     -117.151772      -37.564095
 H         -41.385410     -117.659927      -34.262493
 C         -42.541729     -116.359398      -37.795212
 C         -43.050488     -116.194061      -39.196877
 C         -43.583721     -116.115112      -36.742428
 C         -44.365990     -116.964828      -39.438065
 C         -44.868984     -116.926147      -36.937115
 C         -45.417183     -116.663025      -38.378773
 H         -42.289429     -116.676025      -39.862251
 H         -43.139908     -115.143005      -39.527164
 H         -43.236912     -116.323097      -35.663925
 H         -43.776886     -115.008217      -36.643646
 H         -44.225574     -118.005409      -39.422482
 H         -44.825195     -116.662392      -40.391937
 H         -45.647762     -116.882591      -36.117821
 H         -44.370060     -117.958153      -36.712063
 H         -46.256172     -117.464851      -38.675556
 H         -45.767517     -115.506096      -38.482697
