20
 generated by VMD
 C         -68.131714     -188.203064      -66.570747
 N         -68.834511     -188.736099      -67.339882
 H         -68.337006     -186.985992      -63.561161
 H         -67.572319     -187.660477      -65.862572
 C         -69.253639     -187.538589      -63.636047
 C         -69.380539     -189.019501      -63.146286
 C         -70.428848     -186.682266      -63.411415
 C         -70.805214     -189.639496      -63.466877
 C         -71.741402     -187.327728      -63.772072
 C         -71.955490     -188.761475      -63.121052
 H         -69.233223     -189.097137      -61.983387
 H         -68.497246     -189.632629      -63.608719
 H         -70.401741     -186.382004      -62.349262
 H         -70.333672     -185.787292      -63.948826
 H         -70.915543     -190.502365      -62.856754
 H         -70.831139     -189.949036      -64.544319
 H         -71.733025     -187.455933      -64.902298
 H         -72.552162     -186.676971      -63.427490
 H         -71.863922     -188.566132      -62.038464
 H         -73.067924     -188.957611      -63.514969
