20
 generated by VMD
 C         -57.430569     -162.605728      -56.248039
 N         -57.149662     -162.210632      -57.343117
 H         -59.754818     -165.200684      -55.100948
 H         -57.711670     -162.980637      -55.285519
 C         -60.561310     -164.589981      -54.835102
 C         -60.908966     -164.330338      -53.442368
 C         -61.754173     -164.641006      -55.698795
 C         -62.249584     -163.744492      -53.034237
 C         -62.810040     -163.555862      -55.540665
 C         -63.278343     -163.780106      -54.105598
 H         -60.065445     -163.817871      -53.035126
 H         -60.953091     -165.283066      -53.035854
 H         -61.382351     -164.531509      -56.710762
 H         -62.247009     -165.693405      -55.680740
 H         -62.007179     -162.684036      -52.785931
 H         -62.597744     -164.201035      -52.118561
 H         -63.693615     -163.824051      -56.089611
 H         -62.429958     -162.496796      -55.695248
 H         -64.094322     -163.081741      -53.964249
 H         -63.860943     -164.691223      -54.072258
