20
 generated by VMD
 C         -72.705475     -199.225327      -65.543274
 N         -72.071053     -199.745758      -64.728996
 H         -71.268997     -195.971359      -67.167442
 H         -73.114830     -198.482483      -66.216309
 C         -72.196358     -195.748810      -67.712746
 C         -72.841927     -194.500824      -67.211113
 C         -72.572945     -196.392120      -68.961250
 C         -74.155914     -194.269363      -67.864731
 C         -74.098839     -196.695496      -68.887550
 C         -74.894485     -195.574783      -68.087814
 H         -72.174011     -193.637451      -67.389870
 H         -72.910942     -194.646194      -66.193832
 H         -72.414337     -195.663025      -69.840385
 H         -71.797554     -197.216995      -69.199356
 H         -73.922638     -194.046478      -68.918106
 H         -74.857300     -193.572388      -67.366562
 H         -74.284752     -197.702606      -68.441444
 H         -74.480232     -196.671158      -69.901100
 H         -75.965416     -195.406769      -68.598129
 H         -74.985283     -196.082779      -67.104797
