20
 generated by VMD
 C         -56.454327     -150.100266      -47.684795
 N         -57.598572     -150.341919      -47.712132
 H         -53.218246     -148.054138      -47.571671
 H         -55.373848     -149.979935      -47.570702
 C         -53.653431     -147.807526      -48.507721
 C         -53.092175     -148.484299      -49.613804
 C         -54.488808     -146.608978      -48.523563
 C         -54.151119     -148.695129      -50.686089
 C         -55.474846     -146.765213      -49.660168
 C         -54.952686     -147.411942      -50.924862
 H         -52.696743     -149.482452      -49.114990
 H         -52.373791     -147.896637      -50.151245
 H         -55.195183     -146.421478      -47.619850
 H         -53.832474     -145.715805      -48.617378
 H         -54.873734     -149.544739      -50.439415
 H         -53.648228     -148.869339      -51.643467
 H         -55.947742     -145.793274      -49.766148
 H         -56.204342     -147.474106      -49.256485
 H         -55.870594     -147.665497      -51.509575
 H         -54.386349     -146.683746      -51.511513
