20
 generated by VMD
 C         -22.034533      -55.362827      -17.579721
 N         -21.324165      -55.824570      -18.388042
 H         -21.488098      -56.772930      -13.892819
 H         -22.299217      -55.184105      -16.638903
 C         -21.242746      -57.825630      -14.126122
 C         -21.369314      -58.769146      -13.026567
 C         -21.016497      -58.466835      -15.547099
 C         -20.890974      -60.206192      -13.300804
 C         -20.291363      -59.717869      -15.627832
 C         -19.733866      -60.325367      -14.351181
 H         -22.412989      -58.884956      -12.811989
 H         -20.864634      -58.335052      -12.116469
 H         -22.063450      -58.617245      -15.926131
 H         -20.555765      -57.753193      -16.240482
 H         -21.740618      -60.859280      -13.596886
 H         -20.448860      -60.526386      -12.311191
 H         -19.449284      -59.662109      -16.284323
 H         -20.991194      -60.481312      -15.962374
 H         -19.649336      -61.354519      -14.532331
 H         -18.755804      -59.984898      -14.026917
