20
 generated by VMD
 C         -13.260610      -28.760769       -6.401755
 N         -13.151505      -28.789694       -7.514853
 H         -11.968080      -30.698071       -5.005177
 H         -10.629205      -29.702408       -4.540809
 C         -10.943527      -30.772099       -4.626140
 C         -10.116301      -31.531126       -5.629060
 C         -10.976549      -31.420103       -3.237293
 C          -8.693091      -31.835691       -5.159897
 C          -9.512682      -31.435675       -2.763697
 C          -8.517053      -32.138126       -3.669395
 H         -10.145436      -30.919575       -6.474099
 H         -10.579268      -32.514915       -5.939414
 H         -11.624338      -30.896105       -2.557922
 H         -11.353829      -32.423321       -3.290537
 H          -8.124184      -30.919819       -5.332932
 H          -8.307152      -32.599480       -5.823640
 H          -9.405338      -31.976585       -1.761321
 H          -9.200557      -30.440699       -2.587096
 H          -7.463968      -32.017174       -3.257313
 H          -8.743185      -33.221111       -3.504225
