20
 generated by VMD
 C         -59.893047     -156.917358      -56.500774
 N         -60.971031     -156.461594      -56.480244
 H         -59.782906     -157.314911      -53.117027
 H         -58.856556     -157.241409      -56.398540
 C         -58.897228     -157.872833      -52.709686
 C         -57.722706     -157.090302      -52.372597
 C         -58.954411     -159.353333      -52.464958
 C         -57.389709     -157.439590      -50.879780
 C         -58.406910     -159.682632      -51.049953
 C         -57.137157     -158.983521      -50.651432
 H         -58.034157     -155.995590      -52.421799
 H         -56.894905     -157.211578      -53.170208
 H         -59.960911     -159.800491      -52.430145
 H         -58.402500     -159.817963      -53.265720
 H         -58.250580     -157.144073      -50.240196
 H         -56.515850     -156.888367      -50.655437
 H         -58.135052     -160.772110      -51.157578
 H         -59.336250     -159.572174      -50.296646
 H         -56.891537     -159.267334      -49.622742
 H         -56.293674     -159.357681      -51.228291
