20
 generated by VMD
 C         -40.862240     -102.790077      -34.858742
 N         -41.464092     -102.572792      -35.827190
 H         -39.732574     -104.608940      -32.898907
 H         -40.045574     -102.983047      -34.191795
 C         -38.783051     -104.714302      -32.327778
 C         -37.589417     -104.139236      -32.961189
 C         -38.659496     -105.932167      -31.527222
 C         -36.482601     -104.030693      -31.963430
 C         -37.504581     -105.964279      -30.535015
 C         -36.273247     -105.403824      -31.273043
 H         -37.769905     -103.095558      -33.326550
 H         -37.182274     -104.650627      -33.815948
 H         -39.667591     -106.241982      -31.003553
 H         -38.439358     -106.775200      -32.185806
 H         -36.741173     -103.282021      -31.156694
 H         -35.507629     -103.705002      -32.417198
 H         -37.518593     -107.043030      -30.110708
 H         -37.630928     -105.293396      -29.694845
 H         -35.404774     -105.349068      -30.564423
 H         -35.933929     -106.082321      -32.098160
