20
 generated by VMD
 C         -68.241364     -195.307022      -64.843040
 N         -68.759003     -196.308624      -64.634682
 H         -71.201515     -194.478683      -66.888206
 H         -67.623703     -194.538315      -65.168625
 C         -72.129028     -193.904709      -67.067886
 C         -72.100151     -192.423676      -66.875954
 C         -73.392403     -194.374832      -67.666565
 C         -73.330170     -192.005890      -66.061974
 C         -74.647598     -193.923920      -66.991013
 C         -74.660133     -192.380798      -66.785965
 H         -72.139305     -191.790863      -67.894981
 H         -71.196915     -192.031433      -66.491302
 H         -73.335907     -193.863953      -68.724640
 H         -73.484703     -195.469986      -67.947884
 H         -73.226044     -190.986511      -65.729179
 H         -73.472809     -192.543472      -65.113708
 H         -74.737381     -194.493713      -66.044075
 H         -75.484314     -194.191025      -67.578766
 H         -74.657829     -191.800156      -67.726082
 H         -75.617729     -192.063828      -66.297218
