20
 generated by VMD
 C         -13.867066      -45.503780       -5.602769
 N         -14.336341      -45.321831       -6.602874
 H         -14.917048      -44.253170       -9.204473
 H         -14.398909      -43.978725      -10.856409
 C         -15.318928      -44.212376      -10.292897
 C         -16.452190      -43.199112      -10.503310
 C         -15.843444      -45.614014      -10.612955
 C         -17.007513      -43.353123      -11.952384
 C         -16.214409      -45.844013      -12.063491
 C         -17.314415      -44.824680      -12.367095
 H         -16.133924      -42.180851      -10.279992
 H         -17.345499      -43.312241       -9.812856
 H         -15.123534      -46.351059      -10.237917
 H         -16.721378      -45.914146      -10.049207
 H         -16.336458      -42.835583      -12.634782
 H         -17.954998      -42.797909      -11.920281
 H         -16.584740      -46.818584      -12.207135
 H         -15.319250      -45.686714      -12.731187
 H         -17.635775      -44.962826      -13.365122
 H         -18.133831      -45.061630      -11.704806
