20
 generated by VMD
 C         -38.633091     -108.012383      -37.363857
 N         -38.947990     -107.110428      -38.015076
 H         -40.191387     -108.341583      -34.873520
 H         -38.183163     -108.848579      -36.814693
 C         -40.594746     -109.290932      -34.637821
 C         -39.582924     -110.400169      -34.367527
 C         -42.048359     -109.348801      -34.020336
 C         -39.865192     -111.214798      -33.096859
 C         -42.079514     -110.254944      -32.750515
 C         -41.294193     -111.510071      -32.874054
 H         -38.542248     -110.164612      -34.284904
 H         -39.487942     -111.153885      -35.160419
 H         -42.596413     -108.389671      -33.851612
 H         -42.621250     -109.775040      -34.800343
 H         -39.348747     -110.652176      -32.226585
 H         -39.127136     -112.119835      -33.184299
 H         -43.029060     -110.600319      -32.537857
 H         -41.716816     -109.560654      -32.000732
 H         -41.321968     -111.936951      -31.869688
 H         -41.733765     -112.138733      -33.611713
