20
 generated by VMD
 C          -1.889805      -17.632040        2.080546
 N          -1.622366      -17.111025        3.027025
 H          -5.535828      -17.360889        1.048095
 H          -4.880513      -18.504110       -0.155593
 C          -5.786561      -17.959339        0.154813
 C          -6.185972      -17.054050       -0.987416
 C          -7.036478      -18.792072        0.624420
 C          -6.931132      -17.633364       -2.200156
 C          -7.725887      -19.439972       -0.644883
 C          -8.139016      -18.391657       -1.648217
 H          -5.291447      -16.666332       -1.399710
 H          -6.776767      -16.185991       -0.547876
 H          -6.584283      -19.616007        1.203632
 H          -7.720006      -18.110098        1.137492
 H          -6.293166      -18.309605       -2.709970
 H          -7.278706      -16.765001       -2.792711
 H          -8.637901      -19.975441       -0.319254
 H          -6.993405      -20.163864       -1.159607
 H          -8.727703      -18.878597       -2.464289
 H          -8.818580      -17.725111       -1.118851
