20
 generated by VMD
 C         -19.327007      -60.094017      -17.181877
 N         -19.073732      -60.781311      -16.267023
 H         -22.299391      -61.882599      -17.897057
 H         -19.693148      -59.324795      -17.868275
 C         -23.220730      -62.296703      -17.496393
 C         -24.357775      -63.038391      -18.209078
 C         -23.327137      -62.479527      -16.020060
 C         -24.141094      -64.518005      -18.014101
 C         -23.356720      -63.906925      -15.559229
 C         -24.224503      -64.778252      -16.418524
 H         -24.178120      -62.722992      -19.212971
 H         -25.280472      -62.754639      -17.700827
 H         -22.574661      -61.879383      -15.538774
 H         -24.330986      -62.151485      -15.742389
 H         -23.033464      -64.648392      -18.304705
 H         -24.848404      -65.146164      -18.595974
 H         -23.426630      -64.025375      -14.408902
 H         -22.269964      -64.319168      -15.642412
 H         -23.983986      -65.790878      -16.239651
 H         -25.218847      -64.598961      -16.071032
