20
 generated by VMD
 C         -39.842812      -99.383247      -28.571255
 N         -39.073036     -100.037956      -28.024401
 H         -37.471573      -98.815170      -30.232962
 H         -40.624176      -98.865028      -29.209990
 C         -36.425182      -98.495117      -30.603220
 C         -35.790237      -98.553909      -32.116447
 C         -35.559292      -97.925957      -29.547119
 C         -34.478638      -97.827095      -32.433594
 C         -34.365005      -97.126511      -30.013885
 C         -33.579411      -97.667351      -31.209503
 H         -36.670547      -98.138168      -32.701363
 H         -35.731148      -99.569298      -32.400433
 H         -36.143055      -97.347725      -28.745302
 H         -35.180534      -98.813744      -29.030260
 H         -34.745216      -96.878159      -32.846146
 H         -33.973423      -98.288673      -33.376095
 H         -33.554283      -96.933464      -29.207224
 H         -34.773487      -96.146515      -30.290844
 H         -32.768551      -97.139427      -31.568985
 H         -33.104328      -98.663193      -30.931131
