20
 generated by VMD
 C          -1.125379      -13.290547        0.903855
 N          -0.432631      -13.086214        0.069033
 H          -4.566517      -13.046758        1.797567
 H          -5.816099      -13.296213        0.690470
 C          -5.206017      -13.860415        1.398019
 C          -6.041214      -14.309560        2.584461
 C          -4.337440      -14.988873        0.897794
 C          -6.993551      -15.478486        2.099500
 C          -5.198592      -16.177753        0.478351
 C          -6.229359      -16.694099        1.458462
 H          -6.700587      -13.504261        2.978262
 H          -5.437426      -14.739876        3.359628
 H          -3.925173      -14.662920       -0.094850
 H          -3.460745      -15.412777        1.526423
 H          -7.568042      -15.077929        1.294767
 H          -7.660749      -15.820776        2.888138
 H          -4.617263      -17.021519        0.135308
 H          -5.769695      -15.790725       -0.356657
 H          -6.883814      -17.436304        1.004313
 H          -5.678838      -17.215935        2.257054
