20
 generated by VMD
 C         -69.052269     -187.579880      -67.781746
 N         -67.930038     -187.401276      -67.667336
 H         -68.196671     -187.448395      -64.017769
 H         -70.103226     -187.791397      -68.046806
 C         -69.156677     -187.508163      -63.520615
 C         -69.102020     -187.962814      -62.069260
 C         -70.413597     -186.729095      -64.028419
 C         -70.304382     -188.960861      -61.906231
 C         -71.569229     -187.726852      -63.766338
 C         -71.561249     -188.302994      -62.308968
 H         -69.253044     -187.125031      -61.490078
 H         -68.153282     -188.436005      -61.815479
 H         -70.550407     -185.759354      -63.484348
 H         -70.350281     -186.476654      -65.091225
 H         -70.427002     -189.291687      -60.897682
 H         -70.032700     -189.855438      -62.553558
 H         -71.439552     -188.548157      -64.463043
 H         -72.545967     -187.256805      -63.851582
 H         -71.815247     -187.388214      -61.725471
 H         -72.416443     -189.106979      -62.369072
