20
 generated by VMD
 C         -47.655426     -139.460114      -45.857971
 N         -46.670052     -138.918518      -46.329659
 H         -50.954525     -138.481720      -44.813164
 H         -48.454033     -140.004517      -45.391506
 C         -51.850254     -138.919235      -45.251614
 C         -51.911228     -139.342148      -46.689346
 C         -53.028450     -138.754456      -44.441666
 C         -53.012623     -140.296844      -46.918640
 C         -54.222095     -139.689651      -44.885654
 C         -54.388126     -139.883942      -46.364780
 H         -51.047092     -139.875137      -46.963116
 H         -51.942387     -138.489151      -47.348331
 H         -52.866329     -139.062988      -43.405090
 H         -53.203506     -137.670593      -44.467415
 H         -52.632175     -141.205261      -46.449005
 H         -52.976223     -140.561386      -47.982368
 H         -55.237061     -139.460663      -44.484650
 H         -53.976723     -140.540314      -44.351589
 H         -55.040192     -140.754181      -46.604095
 H         -54.720795     -138.776703      -46.768806
