20
 generated by VMD
 C         -58.400547     -168.462036      -54.941818
 N         -57.226196     -168.615845      -54.941071
 H         -61.759666     -168.025940      -55.546227
 H         -59.468697     -168.356842      -55.088074
 C         -62.412106     -167.409393      -56.157532
 C         -62.646812     -167.689865      -57.603714
 C         -62.954933     -166.059494      -55.595837
 C         -64.139633     -167.621201      -57.948025
 C         -64.378029     -165.919159      -55.994263
 C         -64.678452     -166.219803      -57.432861
 H         -62.325821     -168.624023      -57.934139
 H         -62.039402     -166.818939      -58.174500
 H         -62.728542     -165.930069      -54.553284
 H         -62.261356     -165.324921      -56.005825
 H         -64.730415     -168.410248      -57.472435
 H         -64.259712     -167.615036      -59.022568
 H         -64.652855     -164.849854      -55.943306
 H         -64.983788     -166.479767      -55.158154
 H         -65.814926     -166.048752      -57.624004
 H         -64.185295     -165.452072      -58.135902
