20
 generated by VMD
 C         -79.556160     -206.895813      -75.046768
 N         -79.918358     -207.605942      -74.228439
 H         -77.094414     -207.278198      -73.032829
 H         -79.269989     -206.052872      -75.687775
 C         -76.837036     -207.983353      -72.224037
 C         -75.513123     -207.825958      -71.466087
 C         -77.914909     -208.950241      -71.690521
 C         -76.044136     -207.478287      -69.988884
 C         -78.095612     -208.848267      -70.239838
 C         -76.798691     -208.698914      -69.413780
 H         -74.898323     -207.000458      -71.839966
 H         -74.898254     -208.697296      -71.718208
 H         -78.943146     -208.722809      -72.078819
 H         -77.649422     -209.995453      -71.995972
 H         -76.457085     -206.491180      -69.935371
 H         -75.153770     -207.260880      -69.436646
 H         -78.702682     -209.695099      -69.899872
 H         -78.593483     -207.948029      -69.928032
 H         -76.947006     -208.649261      -68.336578
 H         -76.294960     -209.697571      -69.568321
