20
 generated by VMD
 C         -66.327202     -189.642700      -66.670929
 N         -66.277885     -189.243195      -67.768669
 H         -69.764870     -190.432236      -64.880173
 H         -66.272339     -190.111771      -65.735222
 C         -70.728050     -189.951645      -64.628441
 C         -71.912727     -190.684021      -64.119659
 C         -70.515198     -188.632507      -63.781639
 C         -73.240143     -189.932877      -63.799232
 C         -71.724716     -187.752747      -63.803169
 C         -72.878433     -188.524414      -63.152554
 H         -71.589508     -191.219482      -63.207394
 H         -72.149246     -191.516159      -64.736732
 H         -70.327911     -188.983078      -62.751099
 H         -69.619400     -188.092560      -64.123100
 H         -73.824287     -190.512466      -63.113785
 H         -73.805038     -189.703598      -64.742569
 H         -72.119232     -187.503860      -64.817032
 H         -71.496895     -186.878235      -63.218391
 H         -72.716171     -188.540268      -62.015629
 H         -73.794785     -187.985275      -63.219757
