20
 generated by VMD
 C         -41.729111     -102.244453      -33.994022
 N         -40.827530     -101.847412      -34.593987
 H         -39.430027     -103.961449      -32.468430
 H         -42.630817     -102.518761      -33.527100
 C         -38.354637     -103.890060      -32.164112
 C         -37.260189     -103.605850      -33.171597
 C         -38.077835     -104.816498      -30.931168
 C         -35.989418     -103.306213      -32.320992
 C         -36.857273     -104.386246      -30.140951
 C         -35.703522     -104.120537      -31.129177
 H         -37.638523     -102.774872      -33.809975
 H         -36.939178     -104.416306      -33.826778
 H         -38.954189     -104.859688      -30.161680
 H         -37.984612     -105.750595      -31.426355
 H         -36.115799     -102.195465      -32.192280
 H         -35.008785     -103.454361      -32.914768
 H         -36.553970     -105.099083      -29.350756
 H         -37.033527     -103.387604      -29.710468
 H         -34.807629     -103.677994      -30.611542
 H         -35.263588     -105.094765      -31.566437
