20
 generated by VMD
 C         -50.338623     -127.712585      -40.738251
 N         -51.137653     -128.203384      -41.449688
 H         -47.045536     -127.824020      -41.738487
 H         -49.866592     -127.303741      -39.832024
 C         -46.842674     -126.996101      -41.005417
 C         -45.555676     -127.416122      -40.099072
 C         -46.784260     -125.531822      -41.276653
 C         -44.256828     -126.936417      -40.701065
 C         -45.442207     -125.015594      -41.866756
 C         -44.317341     -125.423523      -41.009739
 H         -45.592453     -128.517136      -39.953472
 H         -45.852928     -126.879715      -39.163803
 H         -47.748192     -125.126801      -41.887478
 H         -47.020908     -124.979767      -40.359394
 H         -43.897602     -127.453445      -41.604744
 H         -43.456066     -126.980064      -39.940575
 H         -45.453060     -123.907928      -41.883202
 H         -45.540733     -125.314735      -42.977196
 H         -43.378319     -125.027008      -41.282612
 H         -44.564690     -124.927696      -40.068001
