20
 generated by VMD
 C          -2.236276      -16.889143        2.838288
 N          -2.400877      -16.286278        1.913045
 H          -4.454816      -15.825102        0.200457
 H          -4.414278      -17.061533       -1.026785
 C          -5.069286      -16.599369       -0.268192
 C          -6.285702      -16.037868       -0.962804
 C          -5.380688      -17.585770        0.821944
 C          -7.351254      -17.019529       -1.359499
 C          -6.372883      -18.675406        0.275012
 C          -7.652410      -17.917850       -0.136480
 H          -6.017851      -15.572069       -1.907434
 H          -6.684711      -15.261384       -0.269970
 H          -4.543573      -18.180210        1.167473
 H          -5.931438      -17.110098        1.593969
 H          -7.093523      -17.649666       -2.205326
 H          -8.266803      -16.448565       -1.595817
 H          -6.555557      -19.318743        1.096540
 H          -5.900068      -19.261618       -0.536256
 H          -8.452607      -18.600504       -0.473803
 H          -8.095255      -17.324337        0.682036
