20
 generated by VMD
 C         -18.180710      -50.039253       -8.877169
 N         -19.287615      -49.999950       -9.038080
 H         -16.326078      -47.221645      -10.037002
 H         -17.168892      -48.785782      -10.393397
 C         -16.717962      -47.826473      -10.878613
 C         -15.509353      -48.271809      -11.683523
 C         -17.720779      -47.046459      -11.720667
 C         -16.057528      -49.209522      -12.701748
 C         -18.002171      -47.645840      -13.096830
 C         -16.840618      -48.385494      -13.735568
 H         -14.867261      -48.753658      -10.985755
 H         -14.930720      -47.498127      -12.241569
 H         -18.645622      -46.837158      -11.179351
 H         -17.255638      -46.093079      -11.823560
 H         -16.589012      -50.047081      -12.244470
 H         -15.202851      -49.690880      -13.225312
 H         -18.346863      -46.918877      -13.741571
 H         -18.840393      -48.349781      -12.873842
 H         -17.257866      -49.049107      -14.559433
 H         -16.110567      -47.655235      -14.192668
