20
 generated by VMD
 C         -10.305057      -33.286591       -9.109331
 N         -11.164263      -32.557877       -9.182364
 H         -11.838143      -36.799713       -8.084074
 H         -12.301101      -36.003109       -6.527411
 C         -12.446306      -36.919682       -7.142484
 C         -12.014541      -38.230186       -6.469821
 C         -13.910241      -36.948490       -7.483869
 C         -12.749923      -38.359337       -5.152056
 C         -14.741261      -37.217796       -6.213165
 C         -14.245751      -38.391945       -5.443595
 H         -10.929385      -38.146915       -6.329919
 H         -12.232290      -39.013905       -7.169522
 H         -14.281112      -36.004780       -7.912123
 H         -14.130352      -37.826092       -8.119804
 H         -12.677076      -37.481834       -4.515359
 H         -12.373309      -39.175045       -4.595499
 H         -15.771985      -37.345993       -6.503121
 H         -14.674712      -36.243664       -5.613145
 H         -14.815949      -38.733131       -4.546360
 H         -14.355192      -39.197140       -6.149905
