20
 generated by VMD
 C         -41.581207     -119.622795      -34.305122
 N         -41.498493     -120.297821      -35.270004
 H         -43.415970     -118.458694      -36.790291
 H         -41.468258     -118.779968      -33.537872
 C         -43.851456     -118.377594      -37.803913
 C         -42.974663     -118.352982      -38.995373
 C         -45.193325     -117.620895      -37.757401
 C         -43.748665     -118.630142      -40.238052
 C         -45.993153     -118.158318      -39.004765
 C         -45.099960     -117.856613      -40.242294
 H         -42.134918     -119.090584      -39.043583
 H         -42.431622     -117.318420      -39.105274
 H         -45.735523     -117.931602      -36.815876
 H         -45.070515     -116.595253      -37.762444
 H         -43.985336     -119.672325      -40.160748
 H         -43.233650     -118.408379      -41.227310
 H         -46.877579     -117.646729      -39.060558
 H         -46.170841     -119.176376      -38.744789
 H         -45.711998     -118.412743      -41.040249
 H         -45.074223     -116.773132      -40.305836
