20
 generated by VMD
 C         -21.781649      -55.669399      -17.656895
 N         -20.750624      -55.517902      -18.066694
 H         -22.838276      -57.866650      -15.032493
 H         -22.923975      -55.674068      -17.260752
 C         -22.143517      -58.689182      -14.814447
 C         -21.402096      -58.854046      -13.477297
 C         -21.644756      -59.595654      -15.886365
 C         -21.121159      -60.285061      -13.245789
 C         -20.206488      -60.187447      -15.641813
 C         -20.058971      -60.869419      -14.343872
 H         -21.920294      -58.459137      -12.624215
 H         -20.442179      -58.279415      -13.507384
 H         -22.416101      -60.382927      -15.854820
 H         -21.631639      -59.002296      -16.827795
 H         -22.024223      -60.878242      -13.272774
 H         -20.764229      -60.446507      -12.212712
 H         -19.562071      -59.312260      -15.509710
 H         -19.887550      -60.855389      -16.467979
 H         -20.202608      -61.968147      -14.436326
 H         -18.984356      -60.746639      -13.936509
