20
 generated by VMD
 C         -32.198006      -94.158653      -25.360510
 N         -33.238972      -94.681252      -25.397472
 H         -33.938938      -95.019455      -28.597322
 H         -31.246523      -93.856903      -25.213963
 C         -34.251076      -94.067604      -28.892626
 C         -35.658745      -93.590576      -28.622881
 C         -33.485912      -93.482903      -30.084421
 C         -35.748119      -92.067139      -28.607077
 C         -33.560440      -92.028496      -30.074392
 C         -35.002560      -91.489326      -29.809553
 H         -35.907814      -94.051193      -27.698568
 H         -36.401875      -94.009392      -29.413057
 H         -32.462814      -93.812241      -29.905985
 H         -33.809864      -93.959396      -31.027077
 H         -35.136921      -91.690071      -27.760767
 H         -36.757786      -91.843933      -28.475735
 H         -33.119125      -91.457405      -30.874468
 H         -32.960613      -91.659271      -29.187197
 H         -35.040318      -90.401558      -29.536566
 H         -35.621983      -91.796013      -30.790421
