20
 generated by VMD
 C         -59.812336     -157.552460      -56.308918
 N         -60.547188     -157.344620      -57.184967
 H         -60.020653     -157.162109      -52.895893
 H         -59.082287     -157.640823      -55.499901
 C         -59.329567     -157.914932      -52.535503
 C         -57.969574     -157.491135      -52.033073
 C         -59.364494     -159.374588      -52.926762
 C         -57.448921     -158.366394      -50.923992
 C         -58.937782     -160.089996      -51.632427
 C         -57.556313     -159.836884      -51.143433
 H         -58.000668     -156.386459      -51.622734
 H         -57.197556     -157.512787      -52.821487
 H         -60.393864     -159.454254      -53.206867
 H         -58.717350     -159.641373      -53.715111
 H         -57.965618     -158.173981      -49.973335
 H         -56.353115     -158.091064      -50.612438
 H         -59.012665     -161.127304      -52.054390
 H         -59.647888     -160.070251      -50.774155
 H         -57.434269     -160.392258      -50.206169
 H         -56.912704     -160.270477      -51.922466
