20
 generated by VMD
 C         -41.472492     -119.297989      -34.582687
 N         -40.929184     -119.716225      -35.505169
 H         -43.486126     -118.156258      -36.567127
 H         -42.123272     -119.041977      -33.804531
 C         -43.864422     -117.959885      -37.571495
 C         -42.877659     -118.094696      -38.742096
 C         -45.200203     -117.288437      -37.606258
 C         -43.695538     -118.552368      -39.919128
 C         -45.946583     -117.911346      -38.802662
 C         -45.026047     -117.747940      -40.038239
 H         -42.074894     -118.768471      -38.634842
 H         -42.540787     -117.177040      -38.985733
 H         -45.739799     -117.558319      -36.732216
 H         -44.915596     -116.178116      -37.564316
 H         -44.084743     -119.566444      -39.732468
 H         -43.194298     -118.535591      -40.848278
 H         -46.952763     -117.242767      -38.906960
 H         -46.225544     -118.972450      -38.475567
 H         -45.535595     -118.054642      -40.942619
 H         -44.705502     -116.597153      -40.137905
