20
 generated by VMD
 C         -27.801220      -81.180916      -27.509422
 N         -28.941364      -81.357292      -27.536715
 H         -29.440878      -83.516510      -25.161503
 H         -26.799662      -80.977982      -27.513557
 C         -30.331083      -83.888603      -24.687899
 C         -30.302313      -84.038620      -23.223444
 C         -31.122662      -84.861778      -25.475374
 C         -31.762201      -84.409050      -22.637251
 C         -32.486366      -85.403511      -24.780142
 C         -32.263634      -85.693069      -23.278419
 H         -29.708740      -83.304863      -22.721127
 H         -29.745825      -84.969604      -23.045380
 H         -31.375416      -84.662964      -26.548851
 H         -30.369751      -85.633835      -25.621658
 H         -32.469105      -83.571442      -22.881891
 H         -31.666290      -84.696167      -21.614445
 H         -32.699249      -86.369453      -25.145674
 H         -33.284054      -84.679031      -24.934666
 H         -33.149769      -86.043358      -22.690931
 H         -31.503954      -86.410072      -23.091805
