20
 generated by VMD
 C         -22.266300      -55.098652      -17.339239
 N         -22.683186      -55.115929      -18.374992
 H         -20.582384      -56.228081      -14.042295
 H         -21.629360      -55.049690      -16.371532
 C         -20.518030      -57.284172      -14.149726
 C         -20.901346      -58.115555      -12.995349
 C         -19.780087      -57.833000      -15.178913
 C         -20.910833      -59.565994      -13.135054
 C         -19.740625      -59.372425      -15.305899
 C         -19.684355      -60.072002      -13.945784
 H         -21.858761      -57.773396      -12.529734
 H         -20.195126      -57.925980      -12.130499
 H         -20.211887      -57.381275      -16.116413
 H         -18.793411      -57.516521      -15.156025
 H         -21.855762      -59.905704      -13.521219
 H         -20.777157      -59.929802      -12.131436
 H         -18.879295      -59.604256      -15.946247
 H         -20.597477      -59.728149      -15.847304
 H         -19.717253      -61.155476      -14.165972
 H         -18.711525      -59.889912      -13.443898
