20
 generated by VMD
 C         -44.831783     -122.394554      -35.684891
 N         -44.873405     -123.151611      -34.835304
 H         -45.191467     -122.730942      -38.921413
 H         -44.528160     -121.702560      -36.526878
 C         -44.903049     -121.724136      -39.408699
 C         -43.495152     -121.438789      -39.615604
 C         -46.054974     -120.822136      -39.679176
 C         -43.335728     -120.300972      -40.708019
 C         -45.759846     -119.596916      -40.629780
 C         -44.297482     -119.158119      -40.439751
 H         -42.922173     -122.292397      -40.058346
 H         -43.043098     -121.320595      -38.527122
 H         -46.769100     -121.523582      -40.092808
 H         -46.478302     -120.465523      -38.770046
 H         -43.348022     -120.628059      -41.731300
 H         -42.331066     -119.867569      -40.635830
 H         -46.531094     -118.886078      -40.350288
 H         -46.013008     -119.982529      -41.610939
 H         -44.093040     -118.340675      -41.129707
 H         -44.124699     -118.803223      -39.450176
