20
 generated by VMD
 C         -46.705967     -124.622063      -37.107944
 N         -46.938660     -124.908295      -35.986847
 H         -44.569382     -121.808197      -37.824493
 H         -46.349331     -124.388550      -38.065037
 C         -44.679615     -121.879150      -38.940075
 C         -43.352669     -122.016792      -39.735405
 C         -45.856594     -121.266426      -39.492760
 C         -43.668720     -122.269821      -41.210434
 C         -45.958462     -121.493477      -40.999004
 C         -44.677731     -121.231178      -41.704739
 H         -42.642460     -122.774193      -39.426708
 H         -42.804821     -121.036499      -39.435638
 H         -46.799232     -121.613693      -38.981125
 H         -45.711868     -120.164001      -39.264263
 H         -44.002636     -123.277344      -41.452850
 H         -42.684673     -122.192924      -41.761532
 H         -46.836830     -121.018578      -41.455688
 H         -46.050037     -122.506058      -41.112480
 H         -44.828522     -121.395699      -42.808002
 H         -44.237572     -120.244240      -41.441597
