20
 generated by VMD
 C         -38.638924     -113.715332      -35.629337
 N         -38.002422     -114.705826      -35.681870
 H         -41.316624     -114.368538      -35.932152
 H         -39.354355     -112.925934      -35.587345
 C         -42.297882     -114.626312      -36.309753
 C         -42.487438     -114.561760      -37.839527
 C         -43.471851     -114.380630      -35.397064
 C         -43.709538     -115.494560      -38.237347
 C         -44.653538     -115.264793      -35.759769
 C         -44.881115     -115.304436      -37.269203
 H         -41.683975     -114.832588      -38.418488
 H         -42.668484     -113.579979      -38.168980
 H         -43.102493     -114.669029      -34.455196
 H         -43.613598     -113.340126      -35.460560
 H         -43.264076     -116.517372      -38.108139
 H         -44.089027     -115.402336      -39.310513
 H         -45.512600     -115.015091      -35.188385
 H         -44.365082     -116.199127      -35.433769
 H         -45.686733     -115.977859      -37.526741
 H         -45.397476     -114.293640      -37.517246
