20
 generated by VMD
 C         -15.249526      -47.239658       -6.281482
 N         -15.328752      -46.889973       -5.233185
 H         -16.144106      -46.595753       -9.813601
 H         -15.036341      -46.246941      -11.059555
 C         -16.100401      -46.204704      -10.858929
 C         -16.427679      -44.657402      -10.864284
 C         -16.907675      -47.093117      -11.763444
 C         -16.347672      -44.300613      -12.327424
 C         -16.846510      -46.641758      -13.215368
 C         -17.181044      -45.148891      -13.312263
 H         -15.731192      -44.087811      -10.213037
 H         -17.433943      -44.407627      -10.455974
 H         -16.610666      -48.180882      -11.726837
 H         -17.945269      -47.086159      -11.425601
 H         -15.323344      -44.383499      -12.736372
 H         -16.561216      -43.222378      -12.443131
 H         -17.640236      -47.294254      -13.747853
 H         -15.862219      -46.876358      -13.581606
 H         -16.940845      -44.779675      -14.342297
 H         -18.241238      -45.079636      -13.054374
