20
 generated by VMD
 C         -49.249512     -127.397667      -39.010712
 N         -50.056923     -126.938843      -38.318993
 H         -46.908482     -125.489120      -40.156918
 H         -48.409119     -127.781158      -39.594780
 C         -46.144520     -124.729034      -40.323647
 C         -44.670734     -125.316010      -40.166431
 C         -46.236137     -123.229202      -40.703785
 C         -43.684795     -124.692154      -41.161903
 C         -45.161022     -122.813507      -41.678806
 C         -43.851017     -123.219368      -41.005360
 H         -44.791855     -126.419350      -40.312950
 H         -44.310581     -125.096733      -39.057140
 H         -47.216400     -123.241280      -41.214409
 H         -46.282207     -122.623260      -39.866280
 H         -43.873150     -125.010506      -42.233536
 H         -42.667992     -125.070259      -40.921467
 H         -45.122234     -121.805931      -41.614952
 H         -45.408001     -123.172440      -42.633827
 H         -43.011974     -122.728416      -41.481823
 H         -43.775097     -122.812508      -39.954720
