20
 generated by VMD
 C         -12.000275      -37.676983       -7.790258
 N         -11.059179      -37.677319       -7.182563
 H         -12.487982      -41.522381       -8.759583
 H         -13.427190      -40.508827       -7.563432
 C         -13.565584      -41.164368       -8.488745
 C         -14.402120      -42.336906       -8.049983
 C         -14.155221      -40.329285       -9.598024
 C         -15.873132      -41.952801       -7.918330
 C         -15.515458      -39.855579       -9.220397
 C         -16.427267      -41.029022       -8.954862
 H         -13.994347      -42.827003       -7.116909
 H         -14.281208      -43.180637       -8.776237
 H         -13.441821      -39.513977       -9.843876
 H         -14.110779      -40.893253      -10.506384
 H         -16.026062      -41.500359       -6.953443
 H         -16.510128      -42.870693       -7.829341
 H         -15.912325      -39.209721       -9.954327
 H         -15.467314      -39.310261       -8.190084
 H         -17.365278      -40.571724       -8.561105
 H         -16.652494      -41.628490       -9.858121
