20
 generated by VMD
 C         -39.518631     -105.579544      -37.255058
 N         -40.453140     -104.937088      -37.005733
 H         -39.271698     -108.434227      -35.425713
 H         -38.553848     -106.029060      -37.578739
 C         -39.395565     -108.684326      -34.401016
 C         -38.393822     -108.400246      -33.407116
 C         -40.657883     -109.412704      -34.088673
 C         -38.909885     -108.328781      -31.908115
 C         -41.089565     -109.510590      -32.592445
 C         -39.898453     -109.661186      -31.663008
 H         -37.887730     -107.337395      -33.571007
 H         -37.578545     -109.171227      -33.406223
 H         -41.526810     -109.016960      -34.640785
 H         -40.462376     -110.334557      -34.564667
 H         -39.523609     -107.458099      -31.774399
 H         -38.021545     -108.278404      -31.237299
 H         -41.830124     -110.374657      -32.414562
 H         -41.653866     -108.679214      -32.125458
 H         -40.133629     -109.622162      -30.489328
 H         -39.362713     -110.550827      -31.835762
