20
 generated by VMD
 C         -58.703648     -161.259628      -56.533558
 N         -58.481853     -160.183472      -56.712231
 H         -59.342026     -164.833694      -54.877911
 H         -58.890003     -162.302658      -56.356964
 C         -60.004425     -164.058411      -54.553093
 C         -59.579559     -163.370804      -53.250034
 C         -61.437790     -163.928680      -55.016300
 C         -60.380955     -162.102188      -52.832726
 C         -62.152817     -162.550140      -54.633656
 C         -61.899776     -162.251663      -53.066536
 H         -58.504890     -163.265137      -53.102005
 H         -59.692360     -164.112976      -52.433842
 H         -61.419338     -164.075058      -56.049149
 H         -61.941082     -164.763168      -54.469570
 H         -59.833355     -161.352142      -53.462139
 H         -60.192612     -161.984818      -51.762604
 H         -63.238197     -162.458237      -54.868774
 H         -61.684189     -161.825516      -55.261120
 H         -62.431149     -161.266296      -52.773033
 H         -62.306301     -163.122101      -52.530499
