20
 generated by VMD
 C         -45.383163     -123.312042      -35.422577
 N         -45.919006     -124.300743      -35.297581
 H         -45.000031     -122.449669      -38.369789
 H         -44.996368     -122.259911      -35.537075
 C         -44.801682     -121.737854      -39.181114
 C         -43.422001     -121.325813      -39.609116
 C         -45.845509     -120.667320      -39.455059
 C         -43.360909     -120.942642      -41.031639
 C         -45.809120     -120.290207      -40.961960
 C         -44.425583     -119.832382      -41.473885
 H         -42.871830     -122.201851      -39.294399
 H         -42.929279     -120.592323      -38.944935
 H         -46.872025     -121.028297      -39.259758
 H         -45.753960     -119.860077      -38.836365
 H         -43.559818     -121.918510      -41.650723
 H         -42.409336     -120.668427      -41.408588
 H         -46.628906     -119.396797      -41.137215
 H         -46.282028     -121.184837      -41.479607
 H         -44.378983     -119.670631      -42.518238
 H         -44.211216     -118.971008      -40.833733
