20
 generated by VMD
 C         -38.719704     -113.623169      -35.823170
 N         -37.726002     -114.202156      -35.893135
 H         -41.269745     -114.910347      -35.645260
 H         -39.607475     -112.967438      -35.956467
 C         -42.232376     -114.588562      -36.083252
 C         -42.368183     -114.406830      -37.594147
 C         -43.403042     -114.261345      -35.216248
 C         -43.570919     -115.309525      -37.959217
 C         -44.666122     -115.008583      -35.707321
 C         -44.862873     -115.132584      -37.293533
 H         -41.432262     -114.557961      -38.130276
 H         -42.627617     -113.380157      -37.784180
 H         -43.280663     -114.353867      -34.152596
 H         -43.613689     -113.239601      -35.405529
 H         -43.214176     -116.309898      -37.783020
 H         -43.628559     -115.225494      -39.077633
 H         -45.489056     -114.661072      -35.138691
 H         -44.718185     -116.040634      -35.440533
 H         -45.559113     -115.954041      -37.457012
 H         -45.491596     -114.162560      -37.582993
