20
 generated by VMD
 C         -29.425409      -74.360832      -20.161348
 N         -30.475206      -74.815323      -20.268377
 H         -25.906395      -73.878998      -18.852781
 H         -28.334805      -74.262634      -20.047096
 C         -25.998196      -73.763344      -19.950768
 C         -25.618288      -74.991745      -20.769867
 C         -25.664831      -72.330223      -20.437763
 C         -26.134054      -74.831413      -22.249540
 C         -26.074621      -72.237320      -21.879122
 C         -25.601645      -73.421959      -22.757969
 H         -26.138268      -75.917206      -20.358440
 H         -24.652191      -75.342209      -20.649691
 H         -26.162882      -71.694077      -19.783976
 H         -24.604763      -72.033234      -20.155165
 H         -27.217283      -74.980034      -22.328846
 H         -25.643221      -75.650024      -22.836739
 H         -25.523590      -71.299423      -22.264463
 H         -27.141964      -72.099777      -21.860353
 H         -25.876154      -73.265282      -23.819111
 H         -24.473915      -73.270920      -22.850348
