20
 generated by VMD
 C         -59.177132     -152.250397      -50.733376
 N         -59.601940     -153.068710      -50.087120
 H         -57.078239     -151.236420      -48.956833
 H         -58.640545     -151.491714      -51.334789
 C         -56.171726     -150.947830      -49.501198
 C         -55.271145     -152.126007      -49.866734
 C         -55.552750     -149.621460      -49.220394
 C         -54.477959     -151.743317      -51.119556
 C         -54.760433     -149.253082      -50.512596
 C         -53.779995     -150.294800      -51.094658
 H         -55.892498     -153.070770      -50.035721
 H         -54.581429     -152.334488      -49.016647
 H         -56.399429     -148.945251      -49.141834
 H         -55.006947     -149.720261      -48.238930
 H         -55.234619     -151.724060      -51.918633
 H         -53.715191     -152.484756      -51.380341
 H         -54.195786     -148.393234      -50.287113
 H         -55.587379     -148.863632      -51.173820
 H         -53.381756     -149.920609      -52.046513
 H         -52.790234     -150.239517      -50.527592
