20
 generated by VMD
 C         -49.603035     -127.255692      -40.090481
 N         -49.334782     -126.816452      -39.055134
 H         -46.517143     -126.839394      -42.239792
 H         -50.070557     -127.600960      -41.015293
 C         -46.293335     -126.127502      -41.478279
 C         -45.261772     -126.603638      -40.521500
 C         -46.795815     -124.697098      -41.429253
 C         -44.078072     -125.657822      -40.572819
 C         -45.558350     -123.690399      -41.464619
 C         -44.564472     -124.166817      -40.363819
 H         -44.904461     -127.527397      -40.749279
 H         -45.764442     -126.804123      -39.563614
 H         -47.532562     -124.510864      -42.208359
 H         -47.455975     -124.676064      -40.536358
 H         -43.476612     -125.693642      -41.503395
 H         -43.377541     -125.880913      -39.752136
 H         -46.050816     -122.728302      -41.346142
 H         -45.122421     -123.865425      -42.523560
 H         -43.706020     -123.482552      -40.446480
 H         -44.933502     -124.134537      -39.333332
