20
 generated by VMD
 C         -64.022247     -175.067993      -55.919151
 N         -63.096661     -175.378082      -56.578861
 H         -65.895721     -173.748184      -58.558159
 H         -64.798546     -174.677383      -55.297607
 C         -65.338295     -172.919327      -58.829765
 C         -65.568176     -171.510269      -58.199978
 C         -64.452721     -173.072845      -60.052971
 C         -64.404747     -170.593781      -58.306870
 C         -63.236164     -172.275360      -59.726063
 C         -63.512119     -170.828568      -59.479034
 H         -66.024635     -171.624146      -57.226467
 H         -66.463615     -171.193069      -58.850639
 H         -64.156052     -174.093521      -60.309902
 H         -64.888351     -172.762329      -61.028736
 H         -63.797806     -170.698502      -57.324215
 H         -64.766319     -169.517166      -58.322105
 H         -62.595734     -172.460434      -60.577522
 H         -62.767578     -172.643524      -58.827385
 H         -62.502056     -170.335495      -59.367172
 H         -64.034546     -170.460388      -60.402771
