20
 generated by VMD
 C         -40.315269     -100.220306      -30.074663
 N         -41.367210     -100.532425      -30.511156
 H         -37.432758     -101.549263      -30.772930
 H         -39.443573      -99.786415      -29.575054
 C         -36.536766     -100.861244      -30.865095
 C         -36.397430     -100.469521      -32.244377
 C         -35.275352     -100.760925      -30.016638
 C         -35.482944      -99.164925      -32.441086
 C         -34.608269      -99.364258      -30.085716
 C         -34.337914      -99.049492      -31.458803
 H         -37.368328     -100.239868      -32.735989
 H         -35.906162     -101.246292      -32.805153
 H         -35.396187     -100.923294      -28.916264
 H         -34.567867     -101.442909      -30.405146
 H         -36.134125      -98.354576      -32.243977
 H         -35.028309      -99.108147      -33.485161
 H         -33.650913      -99.523338      -29.519497
 H         -35.263134      -98.711075      -29.595362
 H         -33.976349      -98.049553      -31.566998
 H         -33.442226      -99.696594      -31.695755
