20
 generated by VMD
 C         -30.442556      -92.913696      -25.887127
 N         -29.854277      -92.500046      -25.000765
 H         -32.737679      -89.729996      -26.545248
 H         -30.862398      -93.342972      -26.766043
 C         -33.517490      -89.901382      -27.233725
 C         -33.994167      -91.286636      -27.060854
 C         -33.393944      -89.300171      -28.563101
 C         -35.295013      -91.593643      -27.816999
 C         -34.704716      -89.477776      -29.339891
 C         -35.186493      -90.933426      -29.259598
 H         -34.063820      -91.365837      -26.004086
 H         -33.114323      -91.780594      -27.248787
 H         -33.171181      -88.228691      -28.587925
 H         -32.677452      -89.844025      -29.146482
 H         -36.158329      -91.218307      -27.292521
 H         -35.325882      -92.701935      -27.856049
 H         -34.615871      -89.195427      -30.404015
 H         -35.533855      -88.855156      -29.021292
 H         -36.200287      -90.993195      -29.670456
 H         -34.613312      -91.575356      -29.959267
