20
 generated by VMD
 C         -37.962334     -109.748177      -36.445229
 N         -37.442181     -108.870056      -35.893181
 H         -40.360149     -112.585030      -36.793083
 H         -38.665051     -110.537132      -36.696903
 C         -41.224041     -112.616226      -36.146805
 C         -42.417641     -113.577942      -36.495331
 C         -41.717312     -111.477791      -35.312622
 C         -43.031448     -114.092018      -35.196468
 C         -42.280434     -112.019386      -33.982162
 C         -43.491344     -112.905006      -34.283897
 H         -42.137875     -114.350967      -37.205925
 H         -43.076748     -112.944504      -37.175377
 H         -41.137238     -110.555016      -35.087914
 H         -42.650539     -111.043144      -35.603127
 H         -42.213840     -114.652832      -34.589127
 H         -43.962109     -114.682503      -35.457321
 H         -42.765011     -111.204636      -33.346294
 H         -41.337696     -112.439102      -33.460495
 H         -43.935883     -113.254700      -33.416046
 H         -44.210304     -112.237701      -34.775139
