20
 generated by VMD
 C         -78.071098     -204.142227      -69.891266
 N         -79.109032     -203.719528      -69.990570
 H         -75.467339     -202.309509      -67.504387
 H         -77.035957     -204.500992      -69.871468
 C         -75.409966     -202.480392      -68.548759
 C         -75.864250     -201.489746      -69.521027
 C         -74.396721     -203.409485      -69.072838
 C         -74.884544     -201.407593      -70.728271
 C         -73.044930     -202.605103      -69.366379
 C         -73.478363     -201.280334      -70.273369
 H         -75.835945     -200.505157      -69.004013
 H         -76.824997     -201.546921      -69.944214
 H         -74.178185     -204.226791      -68.364258
 H         -74.819290     -203.954666      -69.955185
 H         -75.178497     -200.473907      -71.233086
 H         -74.958794     -202.271484      -71.460983
 H         -72.289001     -203.108200      -69.951630
 H         -72.692352     -202.274063      -68.434875
 H         -73.237030     -200.354828      -69.816895
 H         -72.946655     -201.342834      -71.271896
