20
 generated by VMD
 C         -39.734814      -99.281952      -28.443123
 N         -38.954662     -100.023849      -27.950962
 H         -37.451279      -98.559998      -30.655842
 H         -40.430859      -98.739433      -28.976191
 C         -36.377983      -98.271347      -30.723282
 C         -35.775845      -98.635185      -32.127483
 C         -35.474419      -97.821877      -29.510378
 C         -34.545048      -97.702805      -32.378448
 C         -34.367050      -96.898209      -29.967766
 C         -33.659264      -97.657204      -31.182924
 H         -36.521294      -98.466331      -32.931797
 H         -35.571114      -99.725266      -32.078671
 H         -36.036629      -97.341972      -28.756910
 H         -35.073330      -98.737320      -29.078159
 H         -34.864197      -96.677071      -32.620293
 H         -33.983143      -98.006149      -33.226856
 H         -33.657806      -96.918854      -29.171738
 H         -34.517605      -95.843025      -30.140247
 H         -32.700638      -97.117676      -31.296627
 H         -33.285244      -98.719955      -30.999960
