20
 generated by VMD
 C         -69.248222     -194.718109      -65.183708
 N         -68.472183     -193.931442      -64.921021
 H         -71.499939     -194.107468      -68.243088
 H         -69.983559     -195.472443      -65.565285
 C         -71.925156     -193.716461      -67.300949
 C         -71.654533     -192.478790      -66.522415
 C         -73.365990     -194.258118      -67.199738
 C         -72.642097     -192.135818      -65.404213
 C         -74.336891     -193.114365      -67.040230
 C         -74.038300     -192.124023      -65.887390
 H         -71.520836     -191.621262      -67.273689
 H         -70.667000     -192.540970      -66.179337
 H         -73.598999     -194.989243      -68.028908
 H         -73.576759     -194.980423      -66.335938
 H         -72.349785     -191.155945      -65.065788
 H         -72.551399     -192.786224      -64.485130
 H         -75.397324     -193.518921      -66.884262
 H         -74.397423     -192.610001      -67.994598
 H         -74.332138     -191.128006      -66.406311
 H         -74.737244     -192.189468      -65.160835
