20
 generated by VMD
 C         -13.779919      -28.059063       -2.892409
 N         -14.045073      -27.166569       -3.518800
 H         -10.374747      -27.944723       -2.956759
 H          -9.792027      -26.960413       -4.297238
 C          -9.488153      -27.735470       -3.596448
 C          -8.880332      -28.947763       -4.306056
 C          -8.457867      -27.107370       -2.579664
 C          -7.575645      -28.574490       -5.027718
 C          -7.209140      -26.682510       -3.367750
 C          -6.610157      -27.971991       -3.996297
 H          -9.535850      -29.331898       -5.122681
 H          -8.692510      -29.786215       -3.671679
 H          -8.949170      -26.207813       -2.161804
 H          -8.191285      -27.865551       -1.770676
 H          -7.802808      -27.909891       -5.855516
 H          -7.235801      -29.475889       -5.509123
 H          -6.433881      -26.201052       -2.743491
 H          -7.461431      -25.976004       -4.124847
 H          -5.670217      -27.825686       -4.521132
 H          -6.369046      -28.661665       -3.153970
