20
 generated by VMD
 C         -27.877533      -87.403358      -27.094463
 N         -27.879757      -86.860596      -26.035275
 H         -31.220852      -88.794189      -25.401127
 H         -27.670645      -87.926147      -28.035378
 C         -32.244102      -88.657784      -25.795679
 C         -33.503853      -88.757736      -25.007622
 C         -32.454407      -88.587669      -27.266071
 C         -34.476662      -87.672096      -25.325294
 C         -33.628719      -87.612495      -27.744270
 C         -34.944870      -87.786072      -26.802708
 H         -33.273903      -88.730057      -23.952150
 H         -34.112408      -89.721252      -25.065443
 H         -31.633343      -88.111351      -27.744844
 H         -32.521843      -89.631706      -27.619730
 H         -34.063789      -86.634254      -25.174044
 H         -35.418484      -87.773010      -24.818279
 H         -33.753185      -87.816864      -28.883341
 H         -33.161488      -86.601868      -27.586445
 H         -35.731361      -87.049179      -27.010927
 H         -35.439217      -88.703697      -26.859919
