20
 generated by VMD
 C         -39.621456     -116.652435      -34.850521
 N         -39.437443     -115.590691      -34.450024
 H         -41.404179     -115.709442      -37.715332
 H         -40.125546     -117.604172      -35.211407
 C         -42.553638     -115.951859      -37.733894
 C         -43.089806     -115.794197      -39.075947
 C         -43.328526     -115.819092      -36.439014
 C         -44.467339     -116.513023      -39.120491
 C         -44.601120     -116.593628      -36.645451
 C         -45.279026     -116.178741      -37.902683
 H         -42.373512     -116.279053      -39.796600
 H         -43.265549     -114.758049      -39.504684
 H         -42.716301     -116.105469      -35.666847
 H         -43.436222     -114.788101      -36.235035
 H         -44.337032     -117.588326      -39.236809
 H         -44.836983     -116.149155      -40.081123
 H         -45.302494     -116.524750      -35.803520
 H         -44.242481     -117.688721      -36.703976
 H         -46.334446     -116.697861      -38.047707
 H         -45.478546     -115.003044      -37.818363
