20
 generated by VMD
 C         -40.213104     -100.230667      -30.201675
 N         -40.880142     -100.416153      -31.131742
 H         -37.274471     -102.144730      -30.746748
 H         -39.478340     -100.351227      -29.374681
 C         -36.553123     -101.354073      -30.907284
 C         -36.446255     -100.760483      -32.296783
 C         -35.342869     -101.165382      -29.926058
 C         -35.986137      -99.285561      -32.316277
 C         -34.868538      -99.803070      -30.054144
 C         -34.640461      -99.196037      -31.604765
 H         -37.428459     -100.958740      -32.744160
 H         -35.758282     -101.436089      -32.730782
 H         -35.816101     -101.327347      -28.903509
 H         -34.652763     -101.941307      -30.093838
 H         -36.780113      -98.707695      -31.806282
 H         -35.883705      -98.941071      -33.411121
 H         -33.887573      -99.690544      -29.574282
 H         -35.545143      -99.085365      -29.555595
 H         -34.357456      -98.154465      -31.598392
 H         -33.864944      -99.720055      -32.124054
