20
 generated by VMD
 C         -50.125587     -144.937714      -44.533371
 N         -49.374702     -144.003632      -44.648884
 H         -52.478714     -142.354248      -45.727039
 H         -50.888714     -145.657043      -44.259106
 C         -53.073074     -142.324783      -46.645531
 C         -52.424969     -142.372955      -47.935329
 C         -54.556973     -141.745499      -46.649963
 C         -53.394238     -142.695160      -49.149879
 C         -55.305473     -142.114212      -47.843227
 C         -54.620258     -141.804886      -49.140591
 H         -51.669064     -143.228043      -47.944630
 H         -51.753086     -141.575714      -48.185249
 H         -55.059727     -142.015732      -45.738819
 H         -54.402473     -140.697144      -46.619770
 H         -53.720741     -143.672531      -49.201054
 H         -52.792645     -142.558167      -49.999645
 H         -56.239483     -141.504471      -47.785030
 H         -55.519234     -143.158234      -47.860371
 H         -55.184834     -142.083145      -49.999268
 H         -54.438534     -140.800751      -49.292423
