20
 generated by VMD
 C          -2.172038       -9.753796       -0.082027
 N          -2.283764       -8.782242        0.396168
 H          -2.192831      -11.008885        2.650596
 H          -2.573390      -11.970586        4.143457
 C          -2.774464      -11.874092        3.054770
 C          -2.536489      -13.178198        2.283106
 C          -4.248051      -11.433983        3.040308
 C          -3.498944      -14.287621        2.785261
 C          -5.100461      -12.582822        3.604390
 C          -4.953606      -13.897240        2.778008
 H          -1.537013      -13.460770        2.459860
 H          -2.698301      -12.960348        1.215446
 H          -4.320149      -10.606652        3.683790
 H          -4.524972      -10.974010        2.098618
 H          -3.164634      -14.545715        3.780254
 H          -3.356617      -15.070732        2.080278
 H          -6.168641      -12.315923        3.684791
 H          -4.770665      -12.900144        4.649092
 H          -5.527592      -14.749389        3.175076
 H          -5.276937      -13.793164        1.725290
