20
 generated by VMD
 C         -20.008669      -56.147793      -16.754129
 N         -21.122499      -56.414726      -16.444851
 H         -21.817352      -59.550072      -17.330696
 H         -19.074095      -56.000111      -17.269094
 C         -22.259777      -60.103241      -16.550022
 C         -22.787544      -59.602703      -15.210028
 C         -21.968792      -61.506027      -16.606728
 C         -21.500843      -59.651638      -14.278855
 C         -20.923906      -61.853230      -15.566932
 C         -21.091719      -61.144253      -14.198261
 H         -23.678324      -60.195011      -14.859558
 H         -23.114435      -58.546970      -15.334793
 H         -22.915020      -61.962132      -16.402534
 H         -21.681286      -61.842899      -17.593773
 H         -21.716181      -59.332626      -13.264054
 H         -20.714739      -59.003822      -14.565168
 H         -19.844446      -61.690067      -15.936646
 H         -20.951674      -62.988426      -15.584743
 H         -21.786867      -61.692932      -13.541221
 H         -20.048395      -61.168983      -13.850459
