20
 generated by VMD
 C         -50.910358     -129.976227      -44.963890
 N         -51.707726     -129.260132      -45.499249
 H         -48.606277     -129.956635      -43.248203
 H         -50.466171     -130.754333      -44.325306
 C         -48.088306     -129.882812      -42.373604
 C         -47.964371     -131.116653      -41.568848
 C         -47.510525     -128.758087      -41.613079
 C         -46.529217     -131.474655      -41.100903
 C         -46.063530     -128.976883      -41.060577
 C         -45.920723     -130.319839      -40.292862
 H         -48.351830     -131.945435      -42.337238
 H         -48.621254     -131.109711      -40.739891
 H         -47.582554     -127.889183      -42.234089
 H         -48.327019     -128.476288      -40.788315
 H         -45.947510     -131.792816      -41.987381
 H         -46.548641     -132.304306      -40.364075
 H         -45.862419     -128.049194      -40.455830
 H         -45.410297     -128.901108      -41.916145
 H         -44.889362     -130.345001      -39.940231
 H         -46.535450     -130.218170      -39.415344
