20
 generated by VMD
 C         -29.422733      -74.137291      -20.314835
 N         -30.223515      -74.945435      -20.260855
 H         -26.662695      -74.205574      -18.993933
 H         -28.428364      -73.652161      -20.574312
 C         -26.278465      -73.976593      -19.978992
 C         -25.867947      -75.107361      -20.786959
 C         -25.840036      -72.613289      -20.383202
 C         -26.005873      -74.828735      -22.289175
 C         -26.090786      -72.374008      -21.943239
 C         -25.501516      -73.530396      -22.801588
 H         -26.265011      -76.082634      -20.482639
 H         -24.869251      -75.378998      -20.577799
 H         -26.340717      -71.946930      -19.785067
 H         -24.866079      -72.543419      -19.939564
 H         -27.090899      -74.713661      -22.540070
 H         -25.649633      -75.754631      -22.739153
 H         -25.798460      -71.314667      -22.170208
 H         -27.179621      -72.557350      -21.993813
 H         -25.767645      -73.338860      -23.835188
 H         -24.387461      -73.396118      -22.776800
