20
 generated by VMD
 C         -41.394505     -102.345512      -35.509003
 N         -41.532661     -103.432976      -35.899342
 H         -39.389225     -105.011330      -33.547554
 H         -41.293198     -101.354027      -35.203846
 C         -38.552608     -105.092430      -32.842339
 C         -37.272697     -104.424004      -32.864021
 C         -38.938457     -106.330841      -32.056957
 C         -36.466568     -104.667046      -31.643927
 C         -38.079700     -106.474770      -30.698223
 C         -36.544632     -106.129646      -31.041300
 H         -37.511883     -103.346268      -32.938084
 H         -36.825100     -104.711967      -33.778000
 H         -40.043968     -106.220810      -31.860453
 H         -38.921719     -107.089844      -32.773045
 H         -36.718021     -103.952301      -30.914520
 H         -35.481201     -104.506958      -31.980391
 H         -37.980747     -107.570244      -30.353174
 H         -38.510963     -105.955078      -29.881742
 H         -35.815701     -106.247559      -30.210821
 H         -36.244495     -106.909653      -31.751366
