20
 generated by VMD
 C         -70.307930     -182.728592      -64.978706
 N         -70.613365     -183.707626      -65.544876
 H         -67.853012     -181.273529      -62.937790
 H         -69.992584     -181.850586      -64.500427
 C         -67.454224     -181.311661      -61.972279
 C         -67.826538     -182.435059      -61.133133
 C         -67.008247     -180.085632      -61.292717
 C         -66.537056     -182.820526      -60.335995
 C         -65.825775     -180.297577      -60.367268
 C         -65.995979     -181.588593      -59.633904
 H         -68.276489     -183.256119      -61.803371
 H         -68.654892     -182.269821      -60.305550
 H         -66.726578     -179.307220      -62.082817
 H         -67.850166     -179.725510      -60.751358
 H         -65.737495     -183.118362      -61.030617
 H         -66.816658     -183.571823      -59.719608
 H         -65.743179     -179.422852      -59.710541
 H         -64.885567     -180.357269      -60.872799
 H         -65.049744     -181.959351      -59.161213
 H         -66.730988     -181.499680      -58.912685
