20
 generated by VMD
 C         -38.949223      -98.826180      -27.793240
 N         -38.500347      -99.867180      -27.556438
 H         -37.328411      -98.360489      -30.716923
 H         -39.142933      -97.879616      -28.154373
 C         -36.431171      -97.813698      -30.884171
 C         -35.568523      -98.298454      -31.998434
 C         -35.680485      -97.288582      -29.590349
 C         -34.489491      -97.256264      -32.281273
 C         -34.390011      -96.444748      -29.942528
 C         -33.635410      -97.168953      -30.983559
 H         -36.228619      -98.382210      -32.935390
 H         -35.136204      -99.299225      -31.765274
 H         -36.379772      -96.782974      -28.896538
 H         -35.261673      -98.178146      -29.020672
 H         -34.739799      -96.223282      -32.664665
 H         -33.850937      -97.673111      -33.139545
 H         -33.785240      -96.266922      -29.070429
 H         -34.662167      -95.396225      -30.346630
 H         -32.613686      -96.810303      -31.215307
 H         -33.534725      -98.185776      -30.594246
