20
 generated by VMD
 C         -49.887974     -131.912247      -46.667461
 N         -50.023499     -132.578445      -47.576050
 H         -48.061527     -132.233002      -44.169579
 H         -49.855225     -131.630295      -45.648338
 C         -48.725163     -132.829788      -43.454113
 C         -49.562035     -134.027863      -43.884594
 C         -48.918888     -132.439407      -42.006615
 C         -49.403179     -135.194229      -42.859821
 C         -48.785313     -133.604813      -41.062756
 C         -49.675587     -134.804871      -41.419048
 H         -49.204430     -134.245392      -44.965405
 H         -50.551765     -133.632858      -44.002502
 H         -48.129364     -131.689758      -41.847267
 H         -49.863636     -132.033936      -41.820133
 H         -48.407539     -135.575378      -42.953438
 H         -50.022564     -136.023590      -43.178288
 H         -49.038258     -133.323883      -40.037609
 H         -47.616028     -133.862762      -40.975002
 H         -49.513741     -135.691788      -40.870262
 H         -50.706219     -134.484482      -41.497498
