20
 generated by VMD
 C         -53.076614     -146.841599      -44.940029
 N         -52.000122     -147.081726      -44.507084
 H         -54.495098     -146.723999      -47.747261
 H         -54.041729     -146.522964      -45.217953
 C         -54.261467     -145.729141      -48.187935
 C         -53.052418     -145.602203      -49.074631
 C         -55.020580     -144.422791      -47.867626
 C         -53.444874     -144.634079      -50.293396
 C         -55.313591     -143.549561      -49.025486
 C         -54.042625     -143.313675      -49.854877
 H         -52.778969     -146.687607      -49.328896
 H         -52.280537     -145.178360      -48.451122
 H         -55.999321     -144.691910      -47.373955
 H         -54.212860     -143.918152      -47.105564
 H         -54.161823     -145.248245      -50.799698
 H         -52.587109     -144.490143      -50.966949
 H         -55.752083     -142.569427      -48.663700
 H         -56.085495     -143.996979      -49.719807
 H         -54.353935     -142.755356      -50.798286
 H         -53.312218     -142.596619      -49.325287
