20
 generated by VMD
 C         -38.335949     -112.724403      -35.959820
 N         -37.582287     -112.195305      -36.704472
 H         -41.215996     -114.949135      -34.852947
 H         -38.878777     -113.304993      -35.227322
 C         -42.060883     -114.616699      -35.445129
 C         -42.023949     -114.478409      -36.927349
 C         -43.087036     -113.813629      -34.741550
 C         -43.385689     -114.879646      -37.410767
 C         -44.414032     -113.995071      -35.350323
 C         -44.422325     -113.876785      -36.892380
 H         -41.304749     -115.254356      -37.156494
 H         -41.788780     -113.478203      -37.086082
 H         -43.055164     -113.988510      -33.641060
 H         -43.028400     -112.725235      -34.827030
 H         -43.763680     -115.907715      -37.216663
 H         -43.303318     -114.690987      -38.465397
 H         -45.121426     -113.276886      -34.943172
 H         -45.043999     -114.820648      -35.018337
 H         -45.361374     -114.165810      -37.203079
 H         -44.271690     -112.800865      -37.080662
