20
 generated by VMD
 C         -49.825073     -141.778259      -45.251099
 N         -49.345238     -142.799042      -45.256920
 H         -51.852974     -139.044556      -45.945736
 H         -50.220993     -140.792053      -45.132641
 C         -52.272705     -139.893845      -46.416565
 C         -52.421791     -140.098511      -47.866783
 C         -53.356121     -140.435547      -45.495701
 C         -52.993118     -141.438797      -48.353294
 C         -53.908226     -141.816711      -45.983677
 C         -54.237999     -141.759766      -47.507904
 H         -51.428413     -139.944901      -48.321491
 H         -53.150169     -139.384659      -48.269005
 H         -52.847599     -140.469452      -44.522903
 H         -53.900043     -139.538254      -45.735409
 H         -52.150410     -142.165344      -48.209324
 H         -53.389717     -141.343719      -49.420403
 H         -54.728817     -142.177094      -45.444687
 H         -53.103401     -142.501450      -45.815437
 H         -54.498924     -142.801392      -47.826363
 H         -55.015366     -140.994720      -47.708206
