20
 generated by VMD
 C         -20.182423      -57.269657      -16.804413
 N         -19.172558      -57.379910      -17.357405
 H         -22.545395      -59.857857      -17.608761
 H         -21.143229      -57.351513      -16.153522
 C         -22.535223      -60.362038      -16.686592
 C         -23.732706      -61.027294      -16.225931
 C         -21.200298      -60.899044      -16.206236
 C         -23.803257      -62.004669      -15.075132
 C         -21.128609      -62.191200      -15.410228
 C         -22.443554      -62.464283      -14.617065
 H         -24.121359      -61.478378      -17.150036
 H         -24.486530      -60.203705      -15.994401
 H         -20.488699      -60.994209      -17.013292
 H         -20.820440      -60.087296      -15.555443
 H         -24.508318      -62.785290      -15.293123
 H         -24.266689      -61.490467      -14.253612
 H         -20.260773      -62.120094      -14.786790
 H         -20.855415      -63.114933      -15.996523
 H         -22.491331      -63.506618      -14.434301
 H         -22.228369      -62.035419      -13.625485
