20
 generated by VMD
 C         -30.285189      -79.503510      -25.961340
 N         -30.953453      -78.594307      -26.135883
 H         -28.371302      -82.514076      -25.730204
 H         -29.654274      -80.366791      -25.713423
 C         -28.894304      -82.431725      -24.683289
 C         -28.138014      -81.783646      -23.626106
 C         -30.010611      -83.420029      -24.299816
 C         -28.977551      -81.280464      -22.493839
 C         -30.796713      -82.933838      -23.045111
 C         -30.031898      -82.298500      -21.843880
 H         -27.654232      -80.977989      -24.175522
 H         -27.305487      -82.421837      -23.175417
 H         -30.724545      -83.611771      -25.108187
 H         -29.506937      -84.305260      -24.056890
 H         -29.671471      -80.337135      -22.791143
 H         -28.322227      -80.991478      -21.688457
 H         -31.348129      -83.728905      -22.666197
 H         -31.488955      -82.157150      -23.328728
 H         -30.718939      -81.777916      -21.230648
 H         -29.330050      -82.985909      -21.420946
