20
 generated by VMD
 C         -30.602818      -75.262489      -22.724298
 N         -31.316725      -75.290085      -21.843449
 H         -28.680168      -78.029007      -21.310350
 H         -29.896984      -75.595146      -23.479078
 C         -27.909313      -77.301491      -21.569633
 C         -26.754683      -77.897842      -22.230968
 C         -27.650845      -76.065170      -20.679850
 C         -25.846704      -76.817085      -22.987602
 C         -26.627254      -75.017334      -21.479490
 C         -25.375118      -75.650337      -22.110655
 H         -27.006571      -78.715752      -22.974098
 H         -26.232080      -78.546204      -21.569138
 H         -28.593222      -75.619141      -20.430048
 H         -27.120016      -76.419128      -19.848253
 H         -26.389908      -76.501587      -23.939245
 H         -24.890089      -77.331093      -23.241354
 H         -26.333679      -74.316139      -20.685577
 H         -27.231319      -74.369858      -22.203253
 H         -24.767572      -74.924858      -22.641596
 H         -24.594923      -75.895859      -21.292278
