20
 generated by VMD
 C         -48.021713     -135.175552      -46.194279
 N         -47.619282     -134.875778      -47.217804
 H         -51.174786     -134.738098      -45.491005
 H         -48.155666     -135.298462      -45.120354
 C         -51.211372     -135.548126      -44.798065
 C         -51.805317     -136.830322      -45.465557
 C         -51.225410     -135.397141      -43.356392
 C         -51.303764     -138.014191      -44.704094
 C         -50.799305     -136.599228      -42.604160
 C         -51.516418     -137.886841      -43.172180
 H         -51.449242     -136.930435      -46.489147
 H         -52.959503     -136.787537      -45.515732
 H         -50.436069     -134.656754      -43.235271
 H         -52.196651     -134.855927      -43.005035
 H         -50.291718     -138.375580      -44.962822
 H         -51.898399     -138.856293      -44.828423
 H         -50.979805     -136.441772      -41.583157
 H         -49.759197     -136.720795      -42.864578
 H         -50.922016     -138.834320      -42.790474
 H         -52.577816     -137.831375      -43.023678
