20
 generated by VMD
 C         -31.031736      -77.725273      -25.281149
 N         -31.923536      -77.093498      -25.488947
 H         -29.118837      -76.832878      -22.337669
 H         -30.020788      -78.264069      -25.408224
 C         -28.568325      -77.750107      -22.232599
 C         -27.475721      -78.048080      -23.173094
 C         -29.061747      -78.922951      -21.394848
 C         -26.341011      -78.817490      -22.516657
 C         -27.897518      -79.757729      -20.876467
 C         -26.867521      -80.066032      -21.909302
 H         -27.087536      -77.164619      -23.681236
 H         -27.855356      -78.483124      -24.074617
 H         -29.875963      -78.638069      -20.720955
 H         -29.694298      -79.488678      -22.110323
 H         -25.923243      -78.233734      -21.693422
 H         -25.583839      -79.069565      -23.309664
 H         -28.299091      -80.616264      -20.457808
 H         -27.398018      -79.087013      -20.186106
 H         -26.072643      -80.572281      -21.353172
 H         -27.293358      -80.772537      -22.714716
