20
 generated by VMD
 C         -76.616798     -203.152878      -66.643730
 N         -77.324921     -203.602432      -65.876831
 H         -75.726257     -200.383041      -69.139641
 H         -75.759789     -202.672592      -67.168777
 C         -74.750977     -199.885742      -68.966995
 C         -74.820465     -198.439697      -68.601418
 C         -73.577751     -200.367615      -69.811325
 C         -73.485771     -197.704147      -68.789413
 C         -73.265442     -199.329956      -70.862053
 C         -72.750565     -198.117950      -70.110428
 H         -75.211647     -198.302231      -67.660339
 H         -75.553879     -198.036728      -69.241959
 H         -72.796516     -200.446381      -69.131805
 H         -73.929474     -201.310028      -70.249336
 H         -72.829819     -198.125809      -67.992378
 H         -73.594032     -196.607300      -68.674629
 H         -74.128647     -199.102020      -71.531120
 H         -72.561668     -199.596558      -71.672699
 H         -71.675568     -198.237396      -69.951614
 H         -72.846375     -197.407181      -71.017700
