20
 generated by VMD
 C         -48.464485     -133.403122      -47.233845
 N         -48.153107     -133.262466      -48.398415
 H         -49.140823     -134.122147      -44.039787
 H         -49.033852     -133.807007      -46.354420
 C         -49.822643     -134.913956      -43.772095
 C         -50.018055     -136.309708      -44.481171
 C         -50.823532     -134.488129      -42.784454
 C         -50.377731     -137.317047      -43.443119
 C         -51.126038     -135.597244      -41.818703
 C         -51.617203     -136.912384      -42.576385
 H         -49.158966     -136.551743      -45.151901
 H         -50.935265     -136.138458      -45.145351
 H         -50.329292     -133.699936      -42.253399
 H         -51.759899     -134.051468      -43.347874
 H         -49.560837     -137.557449      -42.714401
 H         -50.519779     -138.205658      -44.018715
 H         -51.861912     -135.415192      -41.085388
 H         -50.271896     -135.826294      -41.235332
 H         -51.830471     -137.710434      -41.889153
 H         -52.439827     -136.556076      -43.335438
