20
 generated by VMD
 C         -28.005039      -81.894180      -26.526171
 N         -28.131044      -82.307198      -27.595263
 H         -30.566576      -83.853752      -26.331812
 H         -28.064293      -81.496376      -25.452770
 C         -31.055199      -84.484833      -25.510876
 C         -30.714104      -84.267799      -24.008329
 C         -31.886267      -85.737762      -25.920994
 C         -31.813423      -84.753288      -23.096411
 C         -32.890144      -86.127930      -24.862865
 C         -32.281849      -86.178185      -23.449598
 H         -30.382576      -83.168404      -23.966957
 H         -29.849873      -84.868439      -23.769337
 H         -32.410351      -85.788582      -26.910110
 H         -31.086857      -86.552582      -26.045969
 H         -32.739563      -83.973587      -23.001310
 H         -31.307537      -84.942871      -22.183643
 H         -33.170635      -87.141136      -25.104509
 H         -33.848927      -85.433365      -24.929628
 H         -33.005981      -86.627617      -22.738560
 H         -31.412157      -86.830574      -23.525503
