20
 generated by VMD
 C         -69.150368     -195.811218      -64.871544
 N         -68.583862     -196.751190      -65.196587
 H         -72.220757     -194.316605      -65.535004
 H         -69.785698     -195.018417      -64.648483
 C         -72.156029     -193.937744      -66.586197
 C         -72.182610     -192.454941      -66.649757
 C         -73.094849     -194.660721      -67.512360
 C         -73.600655     -191.927353      -66.462105
 C         -74.471512     -194.231216      -67.121933
 C         -74.615555     -192.717880      -67.280121
 H         -71.849075     -192.045853      -67.677292
 H         -71.354546     -192.021667      -66.143501
 H         -72.948120     -194.471390      -68.548912
 H         -73.043442     -195.689224      -67.464989
 H         -73.745934     -190.849731      -66.737938
 H         -73.823875     -191.916183      -65.346405
 H         -74.661774     -194.429489      -66.038254
 H         -75.219551     -194.773926      -67.667999
 H         -74.717819     -192.546051      -68.371086
 H         -75.665482     -192.515976      -66.932655
