20
 generated by VMD
 C         -59.479233     -158.373718      -57.430489
 N         -58.412777     -158.400940      -58.005928
 H         -59.838020     -158.817184      -54.184143
 H         -60.411648     -158.296494      -56.897133
 C         -59.787331     -159.485046      -53.313416
 C         -58.679173     -159.456711      -52.376072
 C         -60.705826     -160.679550      -53.416992
 C         -58.475662     -160.511154      -51.250298
 C         -60.701294     -161.593201      -52.060040
 C         -59.210575     -161.853241      -51.528099
 H         -58.690632     -158.460968      -52.058472
 H         -57.771786     -159.443130      -52.985706
 H         -61.722137     -160.267181      -53.710236
 H         -60.466312     -161.484985      -54.099964
 H         -58.995216     -160.199188      -50.417080
 H         -57.347687     -160.823898      -51.175133
 H         -61.229511     -162.565384      -52.178131
 H         -61.299488     -161.051956      -51.234802
 H         -59.295658     -162.389755      -50.602310
 H         -58.646332     -162.312225      -52.366596
