20
 generated by VMD
 C         -19.500664      -60.865540      -17.431421
 N         -19.992916      -59.844826      -17.724674
 H         -22.612684      -60.234768      -16.344433
 H         -19.299128      -61.879913      -17.070211
 C         -23.069906      -61.230774      -16.373714
 C         -23.438625      -61.917976      -17.642622
 C         -23.455624      -61.875183      -15.111038
 C         -22.814598      -63.343887      -17.494894
 C         -23.246233      -63.387527      -15.027613
 C         -23.531389      -64.127319      -16.375881
 H         -23.198870      -61.420483      -18.560703
 H         -24.470299      -62.059483      -17.704462
 H         -22.850111      -61.402092      -14.300817
 H         -24.499197      -61.660263      -15.009150
 H         -21.717470      -63.155537      -17.440073
 H         -23.083958      -63.890408      -18.469099
 H         -24.009924      -63.794579      -14.353909
 H         -22.232483      -63.658180      -14.709679
 H         -23.170431      -65.160423      -16.335144
 H         -24.572845      -64.041344      -16.530659
