20
 generated by VMD
 C         -70.283333     -182.952850      -64.338905
 N         -70.226006     -183.508759      -65.367859
 H         -68.704140     -180.256195      -62.297344
 H         -70.265274     -182.457520      -63.347580
 C         -67.796753     -180.684158      -61.854053
 C         -67.767937     -182.063019      -61.306137
 C         -66.928757     -179.684311      -61.057468
 C         -66.464363     -182.575012      -60.629440
 C         -65.657295     -180.252533      -60.383663
 C         -65.850090     -181.588074      -59.734619
 H         -68.058266     -182.744385      -62.108620
 H         -68.440521     -182.100067      -60.557568
 H         -66.717552     -178.872925      -61.838955
 H         -67.583656     -179.393021      -60.258091
 H         -65.679359     -182.843063      -61.466347
 H         -66.651352     -183.462143      -59.912624
 H         -65.296913     -179.514633      -59.621067
 H         -64.873657     -180.445206      -61.147591
 H         -64.929008     -182.028152      -59.222828
 H         -66.600281     -181.607391      -58.990318
