20
 generated by VMD
 C         -30.347345      -92.834648      -25.864283
 N         -29.766838      -92.473587      -24.957241
 H         -32.471706      -89.681740      -26.607183
 H         -30.984127      -93.301895      -26.611330
 C         -33.415382      -89.876297      -27.210165
 C         -34.026222      -91.284561      -27.056036
 C         -33.376896      -89.250809      -28.637945
 C         -35.342300      -91.498772      -27.868547
 C         -34.746284      -89.488205      -29.264271
 C         -35.261208      -90.946861      -29.221857
 H         -34.342663      -91.545815      -26.048698
 H         -33.492699      -92.054771      -27.559340
 H         -33.195560      -88.220299      -28.511074
 H         -32.561749      -89.685547      -29.138086
 H         -36.135777      -91.065704      -27.252039
 H         -35.578041      -92.593613      -28.008429
 H         -34.607616      -89.077629      -30.285971
 H         -35.377926      -88.845970      -28.655544
 H         -36.153019      -91.088875      -29.882336
 H         -34.360653      -91.427299      -29.751947
