20
 generated by VMD
 C         -79.508652     -205.367645      -70.954826
 N         -80.659546     -205.579132      -71.057053
 H         -77.142204     -203.035797      -69.285599
 H         -78.431602     -205.145096      -70.938538
 C         -76.106140     -203.023865      -69.579437
 C         -75.422707     -202.061859      -70.515106
 C         -75.331520     -204.229767      -69.213005
 C         -73.845528     -201.908386      -70.245331
 C         -73.792839     -204.142365      -69.132843
 C         -73.100471     -203.213379      -70.203247
 H         -75.917946     -201.105133      -70.328850
 H         -75.536285     -202.194839      -71.587273
 H         -75.875618     -204.717422      -68.366386
 H         -75.488518     -204.965271      -70.056236
 H         -73.708809     -201.441849      -69.263390
 H         -73.416397     -201.277283      -71.066360
 H         -73.407562     -205.120804      -69.265350
 H         -73.338631     -203.770782      -68.154465
 H         -71.930023     -203.022552      -69.921455
 H         -73.026909     -203.602448      -71.253281
