20
 generated by VMD
 C         -31.052649      -75.728447      -22.526577
 N         -31.067833      -74.792984      -23.181019
 H         -28.623911      -78.568283      -21.384392
 H         -30.694828      -76.808228      -22.300478
 C         -27.790796      -77.919128      -21.528919
 C         -26.741587      -78.162682      -22.588844
 C         -27.583563      -76.868042      -20.497854
 C         -26.167097      -76.893944      -23.178705
 C         -26.893053      -75.536514      -21.133415
 C         -25.730663      -76.051903      -21.992949
 H         -27.213028      -78.791725      -23.369926
 H         -26.066923      -78.950157      -22.211349
 H         -28.591129      -76.491028      -20.223949
 H         -27.027922      -77.224968      -19.692549
 H         -26.898449      -76.298508      -23.762230
 H         -25.288315      -77.003075      -23.863400
 H         -26.511063      -74.937469      -20.270769
 H         -27.532579      -74.835663      -21.647919
 H         -25.181561      -75.227592      -22.465813
 H         -24.949528      -76.477875      -21.413000
