20
 generated by VMD
 C         -20.906616      -64.665543      -17.129219
 N         -20.337542      -65.234360      -16.302959
 H         -24.363058      -63.564800      -17.766541
 H         -21.503698      -64.475159      -18.052956
 C         -24.416855      -64.585770      -18.043951
 C         -24.471960      -64.845680      -19.532707
 C         -24.957220      -65.471695      -16.981934
 C         -24.595011      -66.359955      -19.854116
 C         -24.877003      -66.961777      -17.195946
 C         -25.293360      -67.260223      -18.774279
 H         -23.625526      -64.464783      -20.059841
 H         -25.312212      -64.258163      -19.980604
 H         -24.346205      -65.231384      -16.029669
 H         -26.020115      -65.342674      -16.958172
 H         -23.537523      -66.709946      -19.938385
 H         -25.017809      -66.556641      -20.893803
 H         -25.483509      -67.477791      -16.488323
 H         -23.854017      -67.335770      -17.087757
 H         -25.091820      -68.256119      -18.986885
 H         -26.378126      -67.116211      -18.819500
