20
 generated by VMD
 C         -68.112053     -188.350632      -66.647614
 N         -68.806351     -188.340591      -67.575996
 H         -68.327522     -187.107544      -63.815395
 H         -67.524895     -188.172119      -65.755074
 C         -69.255142     -187.561844      -63.526310
 C         -69.330444     -188.939056      -62.907761
 C         -70.488068     -186.614685      -63.572887
 C         -70.722382     -189.533340      -63.305187
 C         -71.783775     -187.337067      -63.736214
 C         -71.799156     -188.641373      -62.975838
 H         -69.448822     -189.081177      -61.789516
 H         -68.375130     -189.557053      -63.198536
 H         -70.518021     -186.126724      -62.610561
 H         -70.362144     -185.957062      -64.402138
 H         -70.875069     -190.460068      -62.775612
 H         -70.732933     -189.846100      -64.398033
 H         -72.011452     -187.613235      -64.795784
 H         -72.564560     -186.625824      -63.473778
 H         -71.858093     -188.500443      -61.904190
 H         -72.864296     -189.219925      -63.075176
