20
 generated by VMD
 C         -45.872997     -123.852798      -35.586910
 N         -46.441166     -124.835876      -35.468025
 H         -44.918041     -122.093445      -38.131458
 H         -45.290756     -122.933113      -35.834656
 C         -44.646091     -121.501701      -38.995987
 C         -43.271523     -121.447929      -39.711323
 C         -45.799419     -120.699471      -39.485363
 C         -43.503498     -121.372856      -41.241241
 C         -45.838902     -120.686226      -41.093197
 C         -44.494148     -120.377388      -41.672607
 H         -42.763409     -122.364754      -39.482876
 H         -42.816692     -120.459282      -39.342808
 H         -46.756008     -121.318039      -39.173401
 H         -46.015293     -119.717834      -39.069561
 H         -43.893139     -122.347633      -41.613075
 H         -42.603420     -121.119415      -41.676197
 H         -46.505936     -119.967987      -41.331825
 H         -46.207142     -121.575287      -41.519112
 H         -44.586472     -120.408844      -42.771904
 H         -44.114742     -119.308372      -41.528065
