20
 generated by VMD
 C         -48.804771     -133.152344      -47.171768
 N         -48.145954     -133.239395      -48.193535
 H         -48.584957     -134.598526      -43.967251
 H         -49.507477     -133.467789      -46.375214
 C         -49.616722     -134.965607      -43.786888
 C         -49.894066     -136.281250      -44.466614
 C         -50.710045     -134.320145      -42.896561
 C         -50.356392     -137.287781      -43.445648
 C         -51.178715     -135.373672      -41.849079
 C         -51.403984     -136.735229      -42.422085
 H         -48.997028     -136.587051      -45.010338
 H         -50.655167     -136.046509      -45.241924
 H         -50.298813     -133.366913      -42.359749
 H         -51.516525     -133.991226      -43.589012
 H         -49.552250     -137.644287      -42.817074
 H         -50.797268     -138.143555      -44.076691
 H         -52.021423     -135.084366      -41.244465
 H         -50.347672     -135.567657      -41.107742
 H         -51.495701     -137.472870      -41.517166
 H         -52.379185     -136.759460      -42.778316
