20
 generated by VMD
 C         -31.593225      -76.729225      -24.771852
 N         -31.949335      -76.994286      -25.819939
 H         -29.368263      -77.097961      -22.261795
 H         -31.002298      -76.464035      -23.872908
 C         -28.583708      -77.813950      -22.209301
 C         -27.461559      -77.941216      -23.249342
 C         -28.809053      -78.768570      -21.109966
 C         -26.114590      -78.515053      -22.672712
 C         -27.350752      -79.165215      -20.521694
 C         -26.337009      -79.612602      -21.615295
 H         -27.324528      -77.124962      -23.898252
 H         -27.867809      -78.619446      -23.955330
 H         -29.355827      -78.361763      -20.285316
 H         -29.343676      -79.574509      -21.548849
 H         -25.671314      -77.625191      -22.232489
 H         -25.445124      -78.945648      -23.369272
 H         -27.382519      -79.934769      -19.841251
 H         -27.010838      -78.321533      -20.045795
 H         -25.397715      -79.760345      -20.997358
 H         -26.730043      -80.540970      -22.050777
