20
 generated by VMD
 C         -20.507542      -64.513924      -17.013166
 N         -19.621883      -64.295723      -16.282719
 H         -24.271343      -63.362637      -17.547161
 H         -21.392632      -64.395065      -17.559942
 C         -24.443872      -64.316086      -17.953674
 C         -24.756882      -64.605148      -19.301493
 C         -24.777140      -65.350044      -16.882311
 C         -24.672928      -66.124947      -19.659332
 C         -24.670122      -66.792892      -17.287891
 C         -25.464399      -66.925171      -18.575470
 H         -23.898720      -64.053444      -19.805651
 H         -25.770042      -64.354797      -19.512951
 H         -24.147282      -65.174065      -16.077589
 H         -25.708506      -65.153587      -16.470339
 H         -23.632166      -66.323967      -19.704937
 H         -25.054321      -66.124298      -20.624231
 H         -25.019417      -67.508545      -16.534605
 H         -23.647253      -67.016518      -17.460262
 H         -25.391663      -68.019852      -18.808079
 H         -26.477188      -66.757805      -18.494003
