20
 generated by VMD
 C         -47.710674     -138.054504      -45.924919
 N         -47.270939     -137.724670      -46.911785
 H         -50.362736     -137.769150      -44.243397
 H         -48.127552     -138.185333      -44.937122
 C         -51.262787     -138.100754      -44.769386
 C         -51.411957     -138.577713      -46.267040
 C         -52.557610     -137.628906      -44.078957
 C         -52.417183     -139.722031      -46.269936
 C         -53.574150     -138.775375      -44.159100
 C         -53.730480     -139.305679      -45.619469
 H         -50.513332     -138.904068      -46.669376
 H         -51.642433     -137.669601      -46.836769
 H         -52.297951     -137.352234      -43.044292
 H         -52.876598     -136.689636      -44.527439
 H         -52.089916     -140.440903      -45.625137
 H         -52.529140     -140.201431      -47.242737
 H         -54.651474     -138.471237      -43.912788
 H         -53.317993     -139.574524      -43.483147
 H         -54.480820     -140.103546      -45.577942
 H         -54.076111     -138.480881      -46.155975
