20
 generated by VMD
 C         -40.977108     -101.385025      -32.713840
 N         -42.050129     -101.479790      -33.131920
 H         -38.665287     -103.077843      -32.354839
 H         -39.965710     -100.986763      -32.499092
 C         -37.698681     -102.795288      -31.990377
 C         -36.521645     -102.615356      -32.966484
 C         -37.387821     -102.969582      -30.552952
 C         -35.207813     -102.173599      -32.366627
 C         -36.226326     -102.209625      -30.024405
 C         -34.989918     -102.549118      -30.826202
 H         -36.871792     -102.022514      -33.772308
 H         -36.328983     -103.642799      -33.324718
 H         -38.407784     -102.739426      -30.130720
 H         -37.148060     -103.987427      -30.424042
 H         -35.149490     -101.007149      -32.400452
 H         -34.390656     -102.590508      -32.987637
 H         -36.015720     -102.394569      -29.015509
 H         -36.478420     -101.039047      -30.093031
 H         -34.043720     -102.076958      -30.572243
 H         -34.741112     -103.639885      -30.787163
