20
 generated by VMD
 C         -56.169533     -150.198853      -47.009212
 N         -57.105976     -150.321198      -46.305847
 H         -53.364628     -147.866516      -47.584576
 H         -55.369606     -149.982529      -47.758392
 C         -53.797890     -147.550201      -48.501884
 C         -53.133160     -148.167831      -49.719334
 C         -54.490520     -146.232681      -48.543842
 C         -53.822449     -147.892242      -51.031429
 C         -55.472980     -146.127777      -49.765587
 C         -54.722149     -146.582199      -51.112625
 H         -52.876987     -149.300308      -49.571659
 H         -52.083046     -147.712189      -49.735367
 H         -54.962376     -145.965714      -47.554691
 H         -53.879814     -145.339539      -48.708241
 H         -54.462143     -148.766586      -51.049786
 H         -53.114510     -148.101334      -51.897369
 H         -55.808357     -145.043594      -49.977493
 H         -56.252232     -146.742126      -49.505112
 H         -55.453426     -146.831863      -51.925137
 H         -54.167400     -145.710007      -51.552246
