20
 generated by VMD
 C         -21.837111      -52.313515      -11.479681
 N         -21.702076      -52.871937      -10.401402
 H         -19.886572      -51.602776      -14.038518
 H         -21.583910      -51.739780      -12.279032
 C         -18.931211      -51.744732      -13.701655
 C         -17.969015      -51.750462      -14.863915
 C         -18.509697      -51.597931      -12.252740
 C         -16.517893      -51.981396      -14.455638
 C         -17.077869      -51.186092      -12.161075
 C         -16.285151      -52.198181      -13.020457
 H         -18.024015      -50.864300      -15.514776
 H         -18.121367      -52.680828      -15.455091
 H         -19.104303      -50.804073      -11.730158
 H         -18.684242      -52.522408      -11.719292
 H         -15.870059      -51.169373      -14.720049
 H         -16.099800      -52.815773      -15.039377
 H         -16.745228      -51.158810      -11.161223
 H         -16.932117      -50.142696      -12.557658
 H         -15.235247      -52.219238      -12.801083
 H         -16.589031      -53.169952      -12.684525
