20
 generated by VMD
 C         -58.322884     -167.298416      -55.567299
 N         -57.386314     -167.787918      -55.050285
 H         -61.199245     -166.318329      -55.062164
 H         -59.118610     -166.885498      -56.153297
 C         -61.790161     -166.009521      -55.897259
 C         -62.056732     -166.880463      -56.993088
 C         -62.702961     -164.809494      -55.718739
 C         -63.609623     -167.338867      -56.882469
 C         -64.075829     -165.292191      -55.486343
 C         -64.481903     -166.127365      -56.733135
 H         -61.504223     -167.938873      -56.733669
 H         -61.895416     -166.492599      -57.980396
 H         -62.314419     -164.339951      -54.811592
 H         -62.672615     -164.067871      -56.553341
 H         -63.633057     -167.985260      -55.955208
 H         -63.853214     -168.037933      -57.690441
 H         -64.907242     -164.537994      -55.507156
 H         -64.266563     -166.090057      -54.669147
 H         -65.454582     -166.567825      -56.621101
 H         -64.381004     -165.456909      -57.565399
