20
 generated by VMD
 C         -50.127697     -145.023773      -44.634739
 N         -49.464687     -144.133804      -44.508411
 H         -52.778118     -142.789474      -45.801502
 H         -50.858761     -145.820312      -44.572571
 C         -53.290043     -142.522446      -46.698658
 C         -52.422531     -142.406067      -48.068913
 C         -54.531933     -141.818268      -46.616280
 C         -53.288982     -142.783737      -49.208763
 C         -55.387852     -142.030991      -47.905811
 C         -54.592941     -141.967361      -49.156696
 H         -51.618450     -143.125580      -47.944630
 H         -51.901363     -141.351486      -48.070820
 H         -55.165989     -142.054993      -45.702793
 H         -54.373043     -140.606110      -46.554657
 H         -53.355129     -143.964340      -49.214214
 H         -52.842102     -142.480698      -50.227474
 H         -56.166790     -141.268707      -47.939030
 H         -55.829037     -143.099960      -47.837208
 H         -55.354488     -142.322632      -49.936932
 H         -54.316223     -140.825699      -49.436543
