20
 generated by VMD
 C         -78.750999     -208.062027      -76.777954
 N         -78.802315     -208.147186      -75.624413
 H         -79.042007     -210.062531      -73.539719
 H         -78.629227     -207.998077      -77.782295
 C         -78.601631     -210.207825      -72.550537
 C         -77.375748     -209.455826      -72.198082
 C         -79.169464     -211.305862      -71.686813
 C         -77.112373     -209.345718      -70.683189
 C         -78.829346     -211.146103      -70.210648
 C         -77.371422     -210.709961      -69.935547
 H         -77.340927     -208.428574      -72.620201
 H         -76.466980     -210.104431      -72.495979
 H         -80.302322     -211.177261      -71.883667
 H         -78.919624     -212.297119      -72.130547
 H         -77.726768     -208.506302      -70.248970
 H         -76.025101     -209.125885      -70.638382
 H         -79.008636     -212.140930      -69.660393
 H         -79.552437     -210.542084      -69.812546
 H         -77.120110     -210.635773      -68.838135
 H         -76.781029     -211.564636      -70.380363
