20
 generated by VMD
 C         -29.711802      -89.670738      -25.505318
 N         -29.180597      -90.695435      -25.704000
 H         -32.164448      -91.624168      -27.514772
 H         -30.270546      -88.734444      -25.127439
 C         -32.998619      -90.940094      -27.612270
 C         -34.417179      -91.367165      -27.206905
 C         -32.740799      -89.620018      -28.196987
 C         -35.450127      -90.272362      -27.184700
 C         -33.684772      -88.485153      -27.917295
 C         -35.137333      -89.016441      -27.987436
 H         -34.321064      -91.963371      -26.264603
 H         -34.770428      -92.183067      -27.904408
 H         -31.820307      -89.120911      -27.859097
 H         -32.487568      -89.765694      -29.251431
 H         -35.516514      -90.036240      -26.158733
 H         -36.316383      -90.815933      -27.561922
 H         -33.598526      -87.700996      -28.694033
 H         -33.520290      -87.966034      -26.979282
 H         -35.857788      -88.222038      -27.778923
 H         -35.331383      -89.268974      -28.993986
