20
 generated by VMD
 C         -24.504671      -70.016853      -16.492220
 N         -24.547663      -70.508163      -15.431063
 H         -23.768723      -67.206833      -19.146757
 H         -24.437124      -69.546066      -17.386139
 C         -24.292564      -67.961754      -19.670385
 C         -23.740255      -68.723305      -20.842726
 C         -25.787094      -67.778343      -19.514305
 C         -24.716652      -69.893723      -21.190805
 C         -26.717249      -69.001236      -19.843197
 C         -26.236099      -69.563957      -21.284166
 H         -22.847000      -69.217735      -20.522343
 H         -23.576694      -67.921265      -21.588577
 H         -25.899446      -67.533028      -18.389427
 H         -26.208838      -66.882416      -20.054325
 H         -24.409037      -70.588737      -20.389902
 H         -24.286396      -70.423004      -22.014994
 H         -27.723461      -68.776932      -19.982115
 H         -26.527761      -69.757469      -19.191851
 H         -26.731937      -70.502205      -21.532818
 H         -26.541378      -68.797096      -21.995773
