20
 generated by VMD
 C         -22.572289      -55.551201      -16.540501
 N         -23.111626      -54.514851      -16.567034
 H         -19.477091      -55.645802      -15.119692
 H         -22.355734      -56.652496      -16.366011
 C         -19.704165      -56.599586      -14.752237
 C         -20.645494      -56.801964      -13.747180
 C         -18.799740      -57.598942      -15.232455
 C         -20.978592      -58.192982      -13.393079
 C         -18.945324      -58.982548      -14.721841
 C         -19.743769      -59.060459      -13.451005
 H         -21.591410      -56.377018      -14.189886
 H         -20.485682      -56.128956      -12.850458
 H         -18.711401      -57.610485      -16.385855
 H         -17.773987      -57.325020      -15.039778
 H         -21.706997      -58.608170      -14.142677
 H         -21.523731      -58.171825      -12.458486
 H         -17.942291      -59.408131      -14.521092
 H         -19.402641      -59.559513      -15.497589
 H         -19.957605      -60.125919      -13.316765
 H         -19.106810      -58.823936      -12.619643
