20
 generated by VMD
 C         -29.825380      -79.342209      -26.277601
 N         -30.715132      -78.688858      -25.877941
 H         -28.573616      -82.947929      -25.669586
 H         -28.901859      -80.007835      -26.496758
 C         -28.998857      -83.007919      -24.613607
 C         -28.481619      -82.034203      -23.667063
 C         -29.948616      -84.187172      -24.182056
 C         -29.537125      -81.435730      -22.911282
 C         -31.018002      -83.533592      -23.249388
 C         -30.458023      -82.507332      -22.225208
 H         -27.969227      -81.159973      -24.249905
 H         -27.756569      -82.558075      -23.042715
 H         -30.390532      -84.593582      -25.138750
 H         -29.452085      -84.968147      -23.606079
 H         -30.068665      -80.791061      -23.544542
 H         -29.323263      -80.814934      -21.999460
 H         -31.461636      -84.426353      -22.693155
 H         -31.799477      -83.193466      -23.874533
 H         -31.355040      -82.047844      -21.727570
 H         -29.815504      -83.090897      -21.604034
