20
 generated by VMD
 C         -61.337284     -156.159302      -55.025185
 N         -60.435780     -155.858078      -55.660076
 H         -59.561909     -156.006363      -51.590740
 H         -62.179478     -156.248962      -54.376549
 C         -58.535957     -156.208313      -51.302074
 C         -57.702740     -155.070251      -50.854141
 C         -57.792881     -157.285904      -51.996967
 C         -56.342808     -155.412796      -50.329403
 C         -56.457714     -157.666153      -51.381561
 C         -55.620380     -156.432251      -51.209152
 H         -58.335510     -154.738800      -50.015827
 H         -57.567238     -154.306030      -51.550888
 H         -58.475204     -158.263901      -52.133816
 H         -57.536308     -156.963928      -53.020374
 H         -56.513794     -155.525681      -49.265263
 H         -55.647987     -154.483978      -50.411098
 H         -55.789806     -158.356583      -51.959255
 H         -56.548252     -158.137665      -50.445202
 H         -54.617207     -156.685410      -50.898045
 H         -55.441143     -155.992432      -52.258152
