20
 generated by VMD
 C         -68.650581     -185.405457      -67.013817
 N         -67.660202     -185.036530      -66.540169
 H         -69.400475     -187.768845      -64.972153
 H         -69.518105     -185.902588      -67.468201
 C         -69.584969     -187.342560      -63.958221
 C         -69.862206     -185.827850      -63.709496
 C         -69.819824     -188.375977      -62.877819
 C         -69.683662     -185.391968      -62.296432
 C         -69.752289     -187.866241      -61.457764
 C         -70.237946     -186.490799      -61.297146
 H         -70.896782     -185.699371      -63.975376
 H         -69.352669     -185.207352      -64.359276
 H         -70.639687     -189.025024      -63.070045
 H         -69.015427     -189.069855      -63.012161
 H         -70.247322     -184.455078      -62.088806
 H         -68.668434     -185.125381      -62.169945
 H         -68.643028     -187.950546      -61.152775
 H         -70.450676     -188.444595      -60.816208
 H         -71.239105     -186.342621      -61.344437
 H         -69.725548     -186.323135      -60.354122
