20
 generated by VMD
 C         -25.390390      -71.140259      -17.035303
 N         -25.313974      -71.029976      -15.903827
 H         -23.815199      -68.415970      -18.967289
 H         -25.169191      -71.199768      -18.169333
 C         -24.545847      -69.065605      -19.403059
 C         -23.840689      -69.785904      -20.476572
 C         -25.840477      -68.312508      -19.807669
 C         -24.827972      -70.673744      -21.333096
 C         -26.847725      -69.209099      -20.564989
 C         -26.127314      -69.999016      -21.791975
 H         -23.125286      -70.482750      -20.210838
 H         -23.548679      -69.012741      -21.144323
 H         -26.120083      -67.725761      -18.942099
 H         -25.599688      -67.383461      -20.462128
 H         -25.105602      -71.579720      -20.693335
 H         -24.313372      -70.961533      -22.233038
 H         -27.738110      -68.598915      -20.879993
 H         -27.256533      -69.946396      -19.807854
 H         -26.921761      -70.762138      -22.079958
 H         -26.103062      -69.339745      -22.740469
