20
 generated by VMD
 C         -22.546515      -54.877701      -16.131088
 N         -23.643738      -55.315796      -15.991294
 H         -19.012825      -54.746681      -15.368378
 H         -21.849222      -54.115108      -16.492746
 C         -19.386633      -55.615219      -14.833419
 C         -19.449234      -55.438843      -13.369696
 C         -18.772453      -56.962044      -15.389929
 C         -19.621994      -56.776211      -12.514056
 C         -19.474485      -58.119373      -14.695465
 C         -19.347336      -58.135006      -13.203799
 H         -20.318012      -54.809521      -13.185941
 H         -18.490015      -54.995754      -13.013189
 H         -18.806026      -57.046227      -16.454044
 H         -17.723665      -56.896011      -15.031568
 H         -20.631542      -56.782265      -12.124266
 H         -19.054569      -56.715996      -11.538256
 H         -19.043131      -59.033108      -15.028030
 H         -20.538576      -57.971214      -14.968373
 H         -20.070066      -58.837910      -12.810848
 H         -18.370195      -58.523563      -12.801324
