20
 generated by VMD
 C         -40.013313      -99.501595      -28.710960
 N         -39.204178     -100.055283      -28.108032
 H         -37.432339      -98.852219      -30.392870
 H         -40.638596      -98.912361      -29.460768
 C         -36.545132      -98.413780      -30.736034
 C         -35.832172      -98.792427      -32.058804
 C         -35.464195      -98.178123      -29.642216
 C         -34.573261      -97.872986      -32.431625
 C         -34.290852      -97.206841      -29.937351
 C         -33.548584      -97.761871      -31.216789
 H         -36.589184      -98.650345      -32.765606
 H         -35.626049      -99.880699      -31.939035
 H         -36.034122      -97.902107      -28.815332
 H         -35.021168      -99.164085      -29.368561
 H         -34.925991      -96.835175      -32.670956
 H         -34.165291      -98.258583      -33.308632
 H         -33.591331      -97.037567      -29.159988
 H         -34.632965      -96.164665      -30.183962
 H         -32.700642      -97.136765      -31.600758
 H         -33.040745      -98.714478      -31.048029
