20
 generated by VMD
 C         -60.765511     -153.304398      -52.301853
 N         -61.148418     -153.746811      -51.307762
 H         -57.551613     -154.081696      -51.211014
 H         -60.370647     -152.835297      -53.172562
 C         -56.680904     -153.483124      -50.946617
 C         -56.075920     -153.675323      -49.663143
 C         -56.277905     -152.203201      -51.711937
 C         -54.606190     -153.647644      -49.785759
 C         -54.719364     -151.843231      -51.716564
 C         -54.141647     -152.200836      -50.375172
 H         -56.312939     -154.729004      -49.298428
 H         -56.394550     -153.085983      -48.820251
 H         -56.538929     -152.345779      -52.760593
 H         -56.891792     -151.342545      -51.308186
 H         -54.274746     -154.260803      -50.597946
 H         -54.133869     -153.892258      -48.901733
 H         -54.786697     -150.655640      -51.972328
 H         -54.148972     -152.337173      -52.468353
 H         -53.067535     -152.146759      -50.455532
 H         -54.527004     -151.544403      -49.562767
