20
 generated by VMD
 C         -77.378448     -202.960205      -69.380508
 N         -77.799950     -203.796555      -68.735649
 H         -75.731552     -202.039825      -67.577507
 H         -76.932587     -202.307877      -70.061005
 C         -75.006744     -201.519638      -68.170372
 C         -75.147682     -200.110611      -68.497940
 C         -73.975830     -202.387268      -68.881447
 C         -74.654045     -199.703568      -69.895355
 C         -73.135689     -201.539200      -69.964966
 C         -74.105751     -200.768860      -70.882835
 H         -74.650269     -199.459732      -67.745811
 H         -76.212753     -199.944931      -68.474045
 H         -73.278778     -202.932724      -68.143669
 H         -74.442680     -203.302719      -69.440643
 H         -73.811172     -198.949860      -69.849327
 H         -75.496918     -199.302017      -70.501976
 H         -72.640259     -202.224228      -70.630455
 H         -72.495720     -200.848953      -69.380547
 H         -73.683907     -200.189316      -71.707436
 H         -74.924057     -201.320862      -71.215637
