20
 generated by VMD
 C          -3.530055      -19.960064        3.421593
 N          -3.984523      -19.015934        3.048228
 H          -5.256629      -19.636391       -0.019417
 H          -5.887868      -21.080072       -0.658892
 C          -6.022890      -19.987249       -0.740158
 C          -5.676233      -19.534311       -2.168677
 C          -7.453250      -19.592569       -0.263691
 C          -6.838460      -19.680878       -3.159221
 C          -8.540269      -19.595678       -1.356342
 C          -8.049535      -18.963884       -2.691656
 H          -4.756213      -20.095863       -2.520599
 H          -5.418920      -18.519903       -2.144978
 H          -7.763151      -20.224018        0.583147
 H          -7.385265      -18.492733       -0.019618
 H          -7.013806      -20.803026       -3.338703
 H          -6.590847      -19.269756       -4.183002
 H          -9.487480      -19.070585       -1.077579
 H          -8.829006      -20.609325       -1.671512
 H          -8.885414      -18.961306       -3.376241
 H          -7.773275      -17.931730       -2.527789
