20
 generated by VMD
 C         -38.218754     -113.904816      -35.410496
 N         -38.354443     -115.067619      -35.367741
 H         -41.453186     -114.461998      -36.124088
 H         -37.937477     -112.899269      -35.741535
 C         -42.354774     -114.803886      -36.568497
 C         -42.635021     -114.958839      -38.006149
 C         -43.521595     -114.587753      -35.613533
 C         -44.000481     -115.570343      -38.426609
 C         -44.641041     -115.619766      -36.011513
 C         -45.155823     -115.427078      -37.365864
 H         -41.843021     -115.443047      -38.526466
 H         -42.512985     -114.043312      -38.544163
 H         -43.062164     -114.797859      -34.605026
 H         -43.930382     -113.584671      -35.831741
 H         -43.968925     -116.719315      -38.514961
 H         -44.401081     -115.257103      -39.387341
 H         -45.479721     -115.471985      -35.369419
 H         -44.163025     -116.547737      -35.922989
 H         -45.925083     -116.148804      -37.578766
 H         -45.705681     -114.565140      -37.704029
