20
 generated by VMD
 C         -41.061153     -104.146553      -35.856010
 N         -41.914238     -104.881622      -36.117634
 H         -38.165943     -103.795822      -33.372433
 H         -40.269478     -103.495178      -35.629417
 C         -38.160465     -104.843025      -32.970596
 C         -36.875496     -105.220093      -32.374687
 C         -39.217041     -105.939163      -33.049023
 C         -37.094227     -106.255714      -31.227264
 C         -39.262287     -107.181259      -32.042965
 C         -37.853279     -107.539848      -31.626451
 H         -36.400265     -104.389786      -31.915924
 H         -36.175278     -105.668816      -33.111771
 H         -40.224731     -105.434418      -33.077930
 H         -39.090786     -106.383537      -34.051846
 H         -37.597878     -105.832848      -30.293192
 H         -36.060089     -106.282616      -30.817005
 H         -40.007374     -107.919868      -32.381062
 H         -39.695702     -106.573288      -31.201363
 H         -37.979023     -108.233299      -30.782953
 H         -37.255836     -108.079231      -32.401142
