20
 generated by VMD
 C         -79.461700     -205.429031      -70.929657
 N         -80.622467     -205.667419      -71.138741
 H         -77.144608     -203.024582      -69.734695
 H         -78.444466     -205.228531      -70.739784
 C         -76.103859     -203.181015      -69.798027
 C         -75.343773     -201.941406      -70.271194
 C         -75.364822     -204.453384      -69.539627
 C         -73.815628     -202.032059      -70.497673
 C         -74.059471     -204.113007      -68.978821
 C         -73.249832     -203.466827      -70.056274
 H         -75.592438     -201.138702      -69.554832
 H         -75.875977     -201.624908      -71.175385
 H         -75.980652     -205.175293      -68.961060
 H         -75.250519     -205.023880      -70.488220
 H         -73.358742     -201.425980      -69.725937
 H         -73.448814     -201.768234      -71.489433
 H         -73.466591     -204.910690      -68.697136
 H         -74.182655     -203.434097      -68.049492
 H         -72.116013     -203.241669      -69.855637
 H         -73.170113     -204.161148      -70.932678
