20
 generated by VMD
 C         -78.653534     -209.767960      -76.736702
 N         -77.685944     -210.113663      -77.318710
 H         -79.628021     -211.572800      -74.306084
 H         -79.586296     -209.476074      -76.174034
 C         -79.541275     -212.082397      -73.353691
 C         -78.250595     -212.382050      -72.662453
 C         -80.545586     -213.160934      -73.076607
 C         -78.280418     -212.756699      -71.239647
 C         -80.721764     -213.371765      -71.568657
 C         -79.417664     -213.773926      -70.974945
 H         -77.582306     -211.471756      -72.657417
 H         -77.762764     -213.232483      -73.207520
 H         -81.502640     -212.952225      -73.535995
 H         -80.296928     -214.172531      -73.648453
 H         -78.475777     -211.941422      -70.504074
 H         -77.319931     -213.187363      -71.049431
 H         -81.537537     -214.024826      -71.366074
 H         -80.991928     -212.424591      -71.101295
 H         -79.520996     -213.802231      -69.862122
 H         -79.208855     -214.762360      -71.309967
