20
 generated by VMD
 C         -69.628227     -180.143311      -61.743484
 N         -69.341225     -181.053482      -62.431404
 H         -66.531586     -180.386520      -59.285759
 H         -69.966461     -179.327774      -61.160206
 C         -66.178772     -179.489807      -59.651375
 C         -65.328690     -179.728638      -60.874264
 C         -66.103203     -178.182007      -58.894283
 C         -65.321396     -178.437698      -61.750557
 C         -65.682465     -176.956711      -59.660488
 C         -64.961700     -177.157349      -60.930145
 H         -65.752838     -180.505402      -61.489285
 H         -64.360794     -179.979523      -60.564724
 H         -67.010605     -178.063507      -58.287006
 H         -65.295113     -178.456024      -58.231876
 H         -66.267990     -178.215744      -62.209373
 H         -64.746452     -178.491135      -62.638268
 H         -65.136436     -176.212112      -59.019398
 H         -66.665779     -176.590500      -60.034916
 H         -65.167778     -176.367111      -61.739574
 H         -63.863899     -177.241669      -60.901962
