20
 generated by VMD
 C          -1.480798      -10.871851        1.479431
 N          -0.984340      -11.813362        1.187874
 H          -3.970667      -13.031560        0.093846
 H          -5.417629      -12.885792        1.033936
 C          -4.582673      -13.575061        0.822124
 C          -3.873695      -13.876729        2.118392
 C          -5.274507      -14.799305        0.171324
 C          -4.971406      -14.472493        3.102657
 C          -6.174872      -15.489333        1.126796
 C          -5.640050      -15.740376        2.518866
 H          -3.605921      -12.950361        2.636168
 H          -3.132239      -14.615733        2.040439
 H          -5.751445      -14.503955       -0.810043
 H          -4.403569      -15.510471       -0.087287
 H          -5.740220      -13.742376        3.303017
 H          -4.560811      -14.762276        4.073839
 H          -6.272435      -16.514534        0.735891
 H          -7.145905      -15.032356        1.217821
 H          -6.565103      -15.924875        3.134400
 H          -4.994538      -16.679621        2.623530
