20
 generated by VMD
 C         -19.944441      -61.240192      -16.966148
 N         -19.623795      -60.592499      -16.053982
 H         -22.312927      -61.826225      -18.161219
 H         -20.082920      -61.892403      -17.802593
 C         -22.918190      -62.614147      -17.770805
 C         -24.043741      -63.229954      -18.522572
 C         -22.855818      -62.986938      -16.348707
 C         -24.351519      -64.645844      -18.081356
 C         -23.441669      -64.295937      -15.700980
 C         -24.706692      -64.649857      -16.580687
 H         -23.812323      -63.210163      -19.591337
 H         -24.907219      -62.536163      -18.335649
 H         -21.856644      -63.056271      -15.950646
 H         -23.330355      -62.053997      -15.880074
 H         -23.557493      -65.502922      -18.330933
 H         -25.243645      -65.072250      -18.604303
 H         -23.755434      -64.032127      -14.688963
 H         -22.753721      -65.126572      -15.790189
 H         -24.901728      -65.704529      -16.248983
 H         -25.665295      -64.112404      -16.358294
