20
 generated by VMD
 C         -78.254356     -204.240494      -69.294968
 N         -79.101601     -203.889313      -69.982391
 H         -75.577095     -202.335251      -67.481194
 H         -77.572769     -204.503296      -68.450706
 C         -75.111511     -202.094193      -68.508736
 C         -75.366104     -200.749619      -69.066246
 C         -74.123398     -203.037323      -69.026413
 C         -74.911537     -200.645203      -70.514175
 C         -72.879280     -202.163254      -69.496620
 C         -73.469437     -201.112930      -70.594109
 H         -74.843185     -200.042328      -68.410614
 H         -76.424347     -200.470337      -68.991035
 H         -73.805252     -203.741531      -68.167442
 H         -74.606522     -203.609818      -69.804497
 H         -74.972900     -199.537521      -70.750847
 H         -75.539909     -201.161270      -71.216438
 H         -72.023781     -202.637344      -69.999176
 H         -72.628006     -201.641220      -68.569305
 H         -72.886375     -200.281982      -70.669930
 H         -73.415306     -201.612350      -71.563560
