20
 generated by VMD
 C         -12.079653      -31.413101       -9.043037
 N         -12.740851      -32.100632       -9.668160
 H         -10.587545      -34.243855       -6.698697
 H         -11.574290      -34.040051       -5.234472
 C         -11.238544      -34.739277       -5.965657
 C         -10.587852      -35.871498       -5.208757
 C         -12.491516      -35.249832       -6.695107
 C         -11.545257      -36.473110       -4.228465
 C         -13.468156      -35.944252       -5.732049
 C         -12.837718      -36.955975       -4.799137
 H          -9.661613      -35.624722       -4.725073
 H         -10.261515      -36.602726       -5.980031
 H         -12.946952      -34.414169       -7.247789
 H         -12.008092      -35.891075       -7.428691
 H         -11.774238      -35.764725       -3.408809
 H         -11.065929      -37.308430       -3.721385
 H         -14.349613      -36.403511       -6.250483
 H         -13.877759      -35.137287       -5.125206
 H         -13.506572      -37.284027       -4.032462
 H         -12.575798      -37.841671       -5.442982
