20
 generated by VMD
 C         -30.892517      -77.967110      -25.237915
 N         -31.674656      -77.178955      -25.266909
 H         -29.397261      -76.949387      -22.665941
 H         -29.994219      -78.612022      -25.566530
 C         -28.751457      -77.863419      -22.456553
 C         -27.435246      -77.991364      -23.133184
 C         -29.303095      -79.035156      -21.655937
 C         -26.375282      -78.974953      -22.612661
 C         -28.070236      -79.819298      -20.921272
 C         -26.973852      -80.177582      -21.937147
 H         -26.949524      -77.040184      -23.033527
 H         -27.641029      -78.155228      -24.191902
 H         -29.941990      -78.576286      -20.868643
 H         -30.032194      -79.583458      -22.214411
 H         -25.725620      -78.407555      -21.907530
 H         -25.687288      -79.320534      -23.389027
 H         -28.575518      -80.757706      -20.529142
 H         -27.750250      -79.147812      -20.137108
 H         -26.194925      -80.813820      -21.332047
 H         -27.321684      -80.897728      -22.675581
