20
 generated by VMD
 C         -27.544874      -72.733231      -17.979361
 N         -28.070721      -73.488449      -17.258495
 H         -24.899263      -70.615723      -18.656853
 H         -27.305355      -71.968079      -18.632071
 C         -25.071033      -70.906013      -19.719240
 C         -24.393755      -72.143364      -20.366974
 C         -25.653461      -69.846512      -20.647463
 C         -25.310673      -72.628708      -21.581007
 C         -26.520021      -70.427261      -21.691320
 C         -25.690037      -71.344055      -22.571148
 H         -24.306643      -72.989258      -19.488142
 H         -23.345102      -71.860741      -20.666628
 H         -26.257889      -69.066223      -20.043228
 H         -24.847055      -69.316475      -21.164898
 H         -26.282774      -72.848824      -21.064117
 H         -24.917206      -73.559486      -22.059135
 H         -26.876431      -69.570328      -22.333876
 H         -27.311272      -71.136284      -21.375456
 H         -26.260632      -71.678375      -23.404905
 H         -24.803984      -70.828743      -23.006319
