20
 generated by VMD
 C         -68.544678     -185.407608      -67.222000
 N         -67.642090     -185.149200      -66.531715
 H         -69.264183     -187.182800      -65.038094
 H         -69.363419     -185.682999      -67.908890
 C         -69.517044     -187.070877      -63.953224
 C         -70.198448     -185.760590      -63.557144
 C         -69.681702     -188.192734      -62.941422
 C         -69.687096     -185.386246      -62.134739
 C         -69.572960     -187.737305      -61.509182
 C         -70.193993     -186.469894      -61.146370
 H         -71.254753     -185.905350      -63.436501
 H         -69.985130     -185.002838      -64.235214
 H         -70.637016     -188.646027      -62.980297
 H         -68.852448     -188.855209      -63.149746
 H         -70.096436     -184.419846      -61.832409
 H         -68.614632     -185.386551      -62.035973
 H         -68.462814     -187.754059      -61.167564
 H         -69.939621     -188.553253      -60.840694
 H         -71.197250     -186.539200      -60.883656
 H         -69.782112     -186.122131      -60.212208
