20
 generated by VMD
 C         -31.649324      -78.645477      -26.380630
 N         -31.159712      -77.967636      -27.156612
 H         -29.397371      -79.682640      -24.066067
 H         -32.249107      -79.313431      -25.663940
 C         -29.027683      -80.641014      -23.955236
 C         -27.619894      -80.828285      -23.278732
 C         -29.934702      -81.903618      -23.571211
 C         -27.687035      -81.050896      -21.740065
 C         -29.942932      -82.071686      -22.092638
 C         -28.585035      -82.327530      -21.497801
 H         -26.926884      -79.994942      -23.434887
 H         -26.949766      -81.593826      -23.645922
 H         -30.925858      -81.833267      -24.047867
 H         -29.480810      -82.904747      -23.878426
 H         -28.080276      -80.157616      -21.334135
 H         -26.671846      -81.315239      -21.320551
 H         -30.647766      -83.006721      -21.837776
 H         -30.339840      -81.225708      -21.541250
 H         -28.644896      -82.445747      -20.406101
 H         -28.213766      -83.221870      -21.983515
