20
 generated by VMD
 C         -49.681709     -133.224182      -46.823792
 N         -48.833511     -132.411301      -47.136013
 H         -48.102028     -134.459396      -44.553947
 H         -50.632778     -133.606491      -46.467560
 C         -48.978817     -134.698807      -43.988533
 C         -49.315498     -136.169540      -44.113903
 C         -49.953072     -133.853821      -43.195427
 C         -50.117298     -136.779282      -42.955143
 C         -50.630016     -134.545425      -42.056091
 C         -51.182163     -135.924057      -42.462597
 H         -48.506271     -136.783279      -44.363075
 H         -49.999908     -136.148865      -45.006382
 H         -49.406757     -133.050461      -42.787785
 H         -50.784931     -133.387741      -43.785664
 H         -49.336212     -136.921112      -42.213310
 H         -50.358868     -137.784454      -43.206158
 H         -51.456749     -133.826202      -41.703480
 H         -49.897942     -134.705383      -41.211372
 H         -51.714325     -136.423965      -41.745972
 H         -51.831055     -135.917923      -43.365993
