20
 generated by VMD
 C         -67.870644     -189.624268      -66.968079
 N         -66.925041     -189.077850      -67.317085
 H         -68.799622     -188.800201      -63.900558
 H         -68.707336     -190.237656      -66.809891
 C         -69.849312     -188.842941      -63.676014
 C         -70.607780     -190.060974      -63.883907
 C         -70.481491     -187.609711      -63.138592
 C         -72.148537     -189.875122      -64.149521
 C         -71.820152     -187.331161      -63.697838
 C         -72.662941     -188.612122      -63.509251
 H         -70.469063     -190.812164      -63.003242
 H         -70.104912     -190.579514      -64.737991
 H         -70.616745     -187.681046      -62.027992
 H         -69.909988     -186.758911      -63.310219
 H         -72.645905     -190.717545      -63.763329
 H         -72.275681     -189.812653      -65.260750
 H         -71.758003     -187.100281      -64.808357
 H         -72.208313     -186.443512      -63.139908
 H         -72.637154     -188.856354      -62.347599
 H         -73.690796     -188.366776      -63.720566
