20
 generated by VMD
 C         -57.958454     -150.636734      -48.816681
 N         -58.010956     -151.829758      -48.634384
 H         -55.580002     -149.653046      -47.683159
 H         -57.799866     -149.542465      -48.881351
 C         -55.139141     -149.312927      -48.577370
 C         -54.359360     -150.315689      -49.472198
 C         -55.106297     -147.927628      -48.907116
 C         -54.206924     -149.806046      -51.009319
 C         -54.989849     -147.581924      -50.388214
 C         -53.778839     -148.322235      -51.100464
 H         -54.847572     -151.286316      -49.493519
 H         -53.459660     -150.562637      -48.984467
 H         -56.023865     -147.504242      -48.549091
 H         -54.339901     -147.285278      -48.400318
 H         -55.038376     -150.099014      -51.672462
 H         -53.327686     -150.422379      -51.334690
 H         -54.874786     -146.529419      -50.584248
 H         -56.000160     -147.838150      -50.979347
 H         -53.618416     -147.889664      -52.041046
 H         -52.941319     -148.080933      -50.432789
