20
 generated by VMD
 C         -19.160250      -61.451710      -16.243269
 N         -19.922623      -60.603615      -16.425461
 H         -22.330330      -62.292881      -18.286909
 H         -18.551600      -62.244801      -16.198336
 C         -23.013361      -63.028519      -17.860174
 C         -24.089119      -63.573887      -18.738556
 C         -22.937565      -63.248055      -16.323442
 C         -24.814325      -64.822113      -18.282845
 C         -23.655716      -64.551414      -16.020891
 C         -24.965515      -64.777039      -16.781065
 H         -23.690800      -63.782875      -19.775003
 H         -24.807526      -62.757820      -18.823135
 H         -21.879610      -63.288582      -15.908894
 H         -23.497351      -62.428032      -15.967901
 H         -24.248800      -65.662987      -18.628038
 H         -25.752907      -65.037369      -18.838062
 H         -23.834126      -64.449333      -14.928551
 H         -22.951002      -65.400177      -16.168068
 H         -25.537714      -65.656448      -16.315697
 H         -25.697670      -63.995472      -16.616043
