20
 generated by VMD
 C         -65.296448     -176.587250      -56.032627
 N         -65.594757     -177.425171      -55.254749
 H         -64.418434     -174.841400      -59.397102
 H         -64.928108     -175.835770      -56.750179
 C         -64.273949     -173.694763      -59.384693
 C         -65.229362     -172.897522      -58.674431
 C         -63.729046     -173.207993      -60.668091
 C         -64.695518     -171.372070      -58.614754
 C         -63.091042     -171.871368      -60.642166
 C         -64.083771     -170.836487      -60.070015
 H         -65.552734     -173.160965      -57.619774
 H         -66.054047     -172.862427      -59.288090
 H         -63.040440     -174.003387      -60.965969
 H         -64.717964     -173.302948      -61.274933
 H         -63.879524     -171.504333      -57.937981
 H         -65.288666     -170.602249      -58.153736
 H         -62.884392     -171.695953      -61.659306
 H         -62.157028     -171.862137      -60.002266
 H         -63.691921     -169.814285      -60.048004
 H         -64.985199     -170.915436      -60.799831
