20
 generated by VMD
 C         -69.533112     -196.074829      -65.085632
 N         -68.573914     -196.712967      -65.318001
 H         -71.876747     -194.210220      -65.346764
 H         -70.562309     -195.808228      -64.903366
 C         -72.151627     -193.924423      -66.321655
 C         -72.220314     -192.455765      -66.589584
 C         -73.015953     -194.758850      -67.245811
 C         -73.635696     -191.962036      -66.598595
 C         -74.403290     -194.313065      -67.276016
 C         -74.606537     -192.855392      -67.450943
 H         -71.878334     -192.452423      -67.625885
 H         -71.690186     -191.863678      -65.780663
 H         -72.592323     -194.608368      -68.301674
 H         -72.832977     -195.818054      -66.829613
 H         -73.640709     -190.971375      -67.060211
 H         -74.031761     -191.908234      -65.584061
 H         -74.860497     -194.615677      -66.361244
 H         -74.909195     -194.907166      -68.072151
 H         -74.394943     -192.485809      -68.519218
 H         -75.528191     -192.589813      -67.172241
