20
 generated by VMD
 C         -61.599712     -154.712128      -53.740215
 N         -62.241924     -155.629044      -54.101898
 H         -58.164654     -155.425812      -51.914276
 H         -60.977566     -153.852921      -53.415115
 C         -57.260345     -154.925873      -51.604343
 C         -57.192280     -154.374146      -50.260197
 C         -56.078457     -154.772629      -52.516167
 C         -56.060604     -154.754303      -49.441128
 C         -54.854454     -155.186951      -51.605286
 C         -54.755947     -154.522171      -50.252598
 H         -58.192009     -154.619064      -49.762440
 H         -57.107319     -153.246719      -50.401978
 H         -56.016209     -155.427216      -53.418255
 H         -56.077820     -153.787689      -52.859383
 H         -56.182228     -155.843842      -49.299282
 H         -56.249889     -154.131958      -48.576824
 H         -53.910992     -154.934662      -52.202419
 H         -54.930481     -156.263611      -51.458839
 H         -53.963203     -155.026932      -49.756977
 H         -54.537476     -153.404190      -50.323566
