20
 generated by VMD
 C         -46.704193     -124.746140      -37.950481
 N         -46.978691     -124.453484      -36.847214
 H         -44.674927     -122.359398      -37.652462
 H         -46.256104     -124.898056      -38.969948
 C         -44.839336     -122.325966      -38.756950
 C         -43.525131     -122.413239      -39.504311
 C         -45.978706     -121.638306      -39.372265
 C         -43.710205     -122.637161      -41.057659
 C         -46.124657     -121.719612      -40.847054
 C         -44.798187     -121.881439      -41.636497
 H         -42.730583     -123.209808      -39.257847
 H         -43.108025     -121.445900      -39.258049
 H         -46.880516     -121.808258      -38.831474
 H         -45.710178     -120.556915      -39.210213
 H         -43.864475     -123.706306      -41.372936
 H         -42.738644     -122.599236      -41.524948
 H         -46.693977     -120.924461      -41.338398
 H         -46.634689     -122.726891      -41.170982
 H         -45.076305     -122.159088      -42.674778
 H         -44.379593     -120.901779      -41.667316
