20
 generated by VMD
 C         -11.685223      -25.890261       -0.882877
 N         -11.683307      -25.099171       -0.111430
 H          -7.918417      -26.224319       -1.279984
 H          -9.157446      -25.612230       -2.410927
 C          -8.080422      -25.687735       -2.193521
 C          -7.371542      -26.494329       -3.308306
 C          -7.467421      -24.357492       -2.088144
 C          -7.387508      -25.866987       -4.700633
 C          -7.435410      -23.604919       -3.392710
 C          -6.894593      -24.421837       -4.568659
 H          -7.745317      -27.528624       -3.332131
 H          -6.351728      -26.730719       -2.929205
 H          -8.016727      -23.724016       -1.409251
 H          -6.469123      -24.396339       -1.657062
 H          -8.379504      -25.919615       -5.156518
 H          -6.797999      -26.422363       -5.446151
 H          -6.913474      -22.655596       -3.325313
 H          -8.471020      -23.351494       -3.585925
 H          -7.078209      -23.865345       -5.484715
 H          -5.774620      -24.431738       -4.580175
