20
 generated by VMD
 C         -50.584042     -145.069031      -45.024532
 N         -50.672211     -145.783752      -44.166176
 H         -53.714474     -144.368088      -46.546757
 H         -50.328560     -144.405121      -45.793915
 C         -53.569027     -143.407349      -47.035488
 C         -52.625095     -143.358475      -48.227673
 C         -54.671680     -142.516159      -47.038742
 C         -53.346733     -143.437836      -49.489704
 C         -55.462887     -142.576904      -48.382381
 C         -54.470600     -142.460190      -49.642441
 H         -51.853191     -144.105820      -48.087753
 H         -52.182713     -142.284058      -48.199669
 H         -55.407139     -142.830338      -46.201355
 H         -54.350296     -141.431458      -46.620914
 H         -53.702942     -144.464706      -49.620201
 H         -52.526031     -143.355652      -50.212837
 H         -56.158054     -141.769409      -48.438171
 H         -55.844154     -143.608704      -48.234074
 H         -55.056011     -142.680176      -50.639866
 H         -54.238518     -141.366882      -49.520195
