20
 generated by VMD
 C         -69.720184     -196.390060      -65.229301
 N         -68.578011     -196.626755      -65.381081
 H         -72.251595     -194.035095      -65.151245
 H         -70.622269     -195.880737      -65.078995
 C         -72.207825     -193.897690      -66.202766
 C         -72.221519     -192.412857      -66.571053
 C         -72.890572     -194.925552      -67.073372
 C         -73.726173     -191.963364      -66.634697
 C         -74.403580     -194.371277      -67.315750
 C         -74.534042     -192.861206      -67.636391
 H         -71.807915     -192.298996      -67.563225
 H         -71.823944     -191.911118      -65.666153
 H         -72.360962     -194.980179      -68.047264
 H         -72.826485     -195.847534      -66.424446
 H         -73.901604     -190.929642      -66.969276
 H         -74.072639     -192.101562      -65.604790
 H         -75.018562     -194.599899      -66.467094
 H         -74.779297     -194.999084      -68.163620
 H         -74.035957     -192.650818      -68.679123
 H         -75.486023     -192.492279      -67.613754
