20
 generated by VMD
 C         -38.263786      -98.611458      -27.815535
 N         -38.273380      -99.584747      -27.196550
 H         -37.418831      -97.807243      -30.564264
 H         -38.359959      -97.808830      -28.548483
 C         -36.384590      -97.494102      -30.661341
 C         -35.531078      -98.076820      -31.868708
 C         -35.645565      -97.014610      -29.548307
 C         -34.493553      -97.047256      -32.216591
 C         -34.531681      -96.102890      -29.847857
 C         -33.615105      -96.822098      -31.011204
 H         -36.261688      -98.321960      -32.715031
 H         -35.064434      -99.018875      -31.567583
 H         -36.304787      -96.636673      -28.694723
 H         -35.229099      -97.952858      -29.133783
 H         -35.026634      -96.147362      -32.528286
 H         -33.991318      -97.294029      -33.087845
 H         -33.933311      -95.883591      -28.949905
 H         -34.858749      -95.071716      -30.246105
 H         -32.797539      -96.121178      -31.294224
 H         -33.158619      -97.837685      -30.703300
