20
 generated by VMD
 C         -69.757401     -184.951691      -66.633766
 N         -69.009636     -184.603363      -67.483505
 H         -70.040108     -183.289124      -63.011871
 H         -70.476143     -185.230499      -65.926834
 C         -69.253860     -183.350784      -62.251701
 C         -69.613464     -184.446533      -61.214436
 C         -68.122154     -182.460846      -61.902927
 C         -68.261543     -185.168060      -60.929657
 C         -66.821518     -183.112976      -61.238991
 C         -67.226135     -184.226227      -60.259872
 H         -70.203423     -185.270691      -61.519882
 H         -69.999214     -183.922546      -60.338383
 H         -67.761894     -181.749664      -62.755581
 H         -68.645935     -181.828445      -61.144321
 H         -67.905289     -185.604858      -61.818295
 H         -68.354286     -185.891663      -60.153286
 H         -66.384659     -182.393677      -60.574978
 H         -66.204323     -183.314041      -62.136276
 H         -66.262604     -184.755783      -59.724758
 H         -67.773918     -183.800735      -59.384514
