20
 generated by VMD
 C          -9.961887      -24.588257        0.303182
 N         -10.458591      -25.087746       -0.556407
 H          -6.284994      -24.730471       -0.870949
 H          -8.038662      -24.416981       -1.087651
 C          -7.060812      -24.472160       -1.598407
 C          -7.134921      -25.524231       -2.727547
 C          -6.940527      -23.031513       -2.162410
 C          -8.045813      -25.139370       -3.945323
 C          -7.763196      -22.679005       -3.335499
 C          -7.727843      -23.716963       -4.426466
 H          -7.522986      -26.490562       -2.315898
 H          -6.130333      -25.618563       -3.091487
 H          -7.151777      -22.366768       -1.356133
 H          -5.887932      -22.930899       -2.544079
 H          -9.059519      -25.128132       -3.540368
 H          -7.922884      -25.869247       -4.801845
 H          -7.506589      -21.676126       -3.683105
 H          -8.806654      -22.667408       -2.988399
 H          -8.403377      -23.472271       -5.202032
 H          -6.684660      -23.780119       -4.805655
