20
 generated by VMD
 C         -19.836372      -61.752914      -16.317322
 N         -20.092854      -61.114300      -17.255861
 H         -21.729336      -63.113335      -17.497046
 H         -19.803371      -62.259819      -15.426191
 C         -22.618210      -63.695557      -17.405596
 C         -23.487669      -63.659462      -18.575796
 C         -23.208427      -63.968914      -16.065273
 C         -24.542774      -64.714363      -18.558273
 C         -24.328218      -65.021233      -16.202921
 C         -25.371532      -64.675453      -17.281706
 H         -22.965158      -63.746220      -19.539053
 H         -24.007948      -62.709824      -18.633396
 H         -22.554564      -64.605186      -15.427197
 H         -23.466164      -63.034702      -15.575475
 H         -24.028042      -65.690742      -18.625710
 H         -25.327738      -64.664978      -19.415037
 H         -24.719269      -65.378662      -15.281179
 H         -23.895901      -65.903587      -16.646736
 H         -26.054623      -65.549698      -17.155823
 H         -26.002104      -63.817806      -16.979065
