20
 generated by VMD
 C         -77.183792     -203.638138      -66.951897
 N         -77.996895     -204.371185      -66.529961
 H         -75.823303     -200.823776      -68.799881
 H         -76.534241     -203.043701      -67.548271
 C         -74.997498     -200.156387      -69.117996
 C         -74.659172     -198.766159      -68.582291
 C         -73.770981     -200.908936      -69.584068
 C         -73.565720     -197.901993      -69.320976
 C         -72.839340     -200.080414      -70.507149
 C         -73.145760     -198.572571      -70.668472
 H         -74.200302     -199.003342      -67.535973
 H         -75.599220     -198.225708      -68.358635
 H         -73.205597     -201.050125      -68.637253
 H         -73.931313     -201.883392      -70.133102
 H         -72.607948     -197.942169      -68.735039
 H         -73.812706     -196.798981      -69.275650
 H         -72.730682     -200.568939      -71.507195
 H         -71.862091     -200.363113      -69.987083
 H         -72.218788     -197.950394      -71.041100
 H         -73.959740     -198.385498      -71.357559
