20
 generated by VMD
 C         -22.023409      -55.320271      -17.523603
 N         -21.529388      -55.789730      -18.465519
 H         -21.336832      -56.799576      -13.918010
 H         -22.104597      -55.132420      -16.561661
 C         -21.105801      -57.768623      -14.158273
 C         -21.241539      -58.782501      -12.915570
 C         -20.823360      -58.255123      -15.477836
 C         -20.901808      -60.193634      -13.282621
 C         -20.247828      -59.649284      -15.594769
 C         -19.827583      -60.135071      -14.277775
 H         -22.249691      -58.658710      -12.473716
 H         -20.578781      -58.459282      -12.147890
 H         -21.765509      -58.281239      -16.048092
 H         -20.099598      -57.533409      -15.921026
 H         -21.799997      -60.754066      -13.626191
 H         -20.477066      -60.712013      -12.438972
 H         -19.502296      -59.645180      -16.418606
 H         -21.105360      -60.255589      -15.962738
 H         -19.317329      -61.150635      -14.429902
 H         -19.048191      -59.457825      -13.895785
