20
 generated by VMD
 C         -15.731632      -47.647247       -6.514505
 N         -15.767314      -46.579403       -6.209901
 H         -16.651052      -47.614029       -9.969138
 H         -15.265265      -47.559677      -11.036834
 C         -16.318575      -47.133312      -10.923611
 C         -16.376064      -45.638279      -10.729312
 C         -17.259031      -47.501961      -12.073116
 C         -16.134657      -44.711418      -11.979434
 C         -16.882778      -46.654888      -13.352755
 C         -17.011967      -45.156532      -13.171665
 H         -15.736576      -45.277325       -9.930521
 H         -17.411085      -45.492229      -10.414548
 H         -17.225025      -48.565586      -12.295821
 H         -18.302738      -47.205021      -11.846737
 H         -15.054508      -44.797935      -12.172234
 H         -16.421831      -43.669758      -11.745374
 H         -17.523891      -46.938507      -14.151079
 H         -15.879417      -47.002113      -13.660686
 H         -16.690657      -44.646393      -14.058706
 H         -18.052593      -44.874100      -12.922421
