20
 generated by VMD
 C         -42.379349     -120.535522      -35.061245
 N         -42.506748     -121.213829      -34.133350
 H         -43.663158     -120.360504      -37.660797
 H         -42.329704     -119.687004      -35.798409
 C         -43.952351     -119.592934      -38.369453
 C         -43.093849     -119.091599      -39.463306
 C         -45.209293     -118.912117      -38.082497
 C         -43.932999     -118.961090      -40.707176
 C         -45.970894     -118.553619      -39.402550
 C         -45.149899     -118.056648      -40.546249
 H         -42.303318     -119.830055      -39.722496
 H         -42.474003     -118.083542      -39.198906
 H         -45.964756     -119.485031      -37.534672
 H         -44.925877     -117.942535      -37.571674
 H         -44.208447     -119.997208      -40.962486
 H         -43.442654     -118.453941      -41.574886
 H         -46.820766     -117.995712      -39.296196
 H         -46.376072     -119.515579      -39.787498
 H         -45.841919     -117.935585      -41.409782
 H         -44.843914     -116.994568      -40.438251
