20
 generated by VMD
 C         -59.835339     -157.027451      -56.694580
 N         -60.961918     -156.596695      -56.632919
 H         -59.696114     -157.528915      -53.480789
 H         -58.760487     -157.323380      -56.712543
 C         -59.064331     -157.871002      -52.657722
 C         -57.821075     -157.116745      -52.110153
 C         -59.075573     -159.340714      -52.514801
 C         -57.268105     -157.630829      -50.837921
 C         -58.494034     -159.794983      -51.115330
 C         -57.167774     -159.107483      -50.781918
 H         -58.094189     -156.056183      -52.264217
 H         -56.980042     -157.371429      -52.912060
 H         -60.163708     -159.621384      -52.684769
 H         -58.467133     -159.931564      -53.163517
 H         -58.051655     -157.481323      -49.964672
 H         -56.302219     -157.200012      -50.628807
 H         -58.398357     -160.900574      -51.242188
 H         -59.325058     -159.589722      -50.323666
 H         -56.726608     -159.468643      -49.786751
 H         -56.408672     -159.446243      -51.489670
