20
 generated by VMD
 C         -49.535969     -127.584503      -39.488415
 N         -50.476032     -127.474770      -40.194981
 H         -46.981033     -127.358192      -42.467419
 H         -48.563858     -127.697800      -39.015659
 C         -46.333733     -126.570457      -42.005848
 C         -45.638607     -127.218330      -40.734119
 C         -46.651436     -125.101891      -42.041954
 C         -44.512417     -126.348862      -40.350723
 C         -45.417427     -124.320061      -41.539692
 C         -44.689705     -124.832382      -40.372799
 H         -45.214546     -128.166290      -40.986855
 H         -46.435974     -127.232109      -39.916130
 H         -46.850937     -124.728188      -43.089798
 H         -47.488438     -124.825752      -41.508759
 H         -43.651966     -126.502083      -41.041344
 H         -44.117149     -126.726883      -39.373341
 H         -45.675560     -123.218452      -41.450638
 H         -44.603848     -124.425934      -42.330818
 H         -43.696968     -124.344269      -40.272366
 H         -45.117435     -124.631813      -39.388393
