20
 generated by VMD
 C         -10.211048      -36.929024       -7.278018
 N         -10.412095      -36.428806       -8.230231
 H         -13.433633      -37.853405       -7.850976
 H         -14.447459      -38.475471       -6.574230
 C         -14.138241      -38.657104       -7.588324
 C         -13.389236      -39.976585       -7.624977
 C         -15.240565      -38.639297       -8.645894
 C         -14.315019      -41.157970       -7.408072
 C         -16.153915      -39.860184       -8.458327
 C         -15.403182      -41.137394       -8.414841
 H         -12.699564      -40.044243       -6.806545
 H         -12.893324      -40.052345       -8.561660
 H         -15.854824      -37.702057       -8.418933
 H         -14.764250      -38.539749       -9.619416
 H         -14.704594      -41.012672       -6.348930
 H         -13.759570      -42.101131       -7.497252
 H         -16.921017      -39.913239       -9.323411
 H         -16.751766      -39.738911       -7.581460
 H         -16.119965      -41.965435       -8.161215
 H         -15.011126      -41.419510       -9.390231
