20
 generated by VMD
 C         -38.319958     -112.847824      -36.144917
 N         -37.351791     -112.399010      -36.592846
 H         -41.257290     -114.757988      -34.775635
 H         -39.305477     -112.993004      -35.846771
 C         -42.160831     -114.627235      -35.410389
 C         -41.998791     -114.732643      -36.878574
 C         -43.341892     -113.928421      -34.670269
 C         -43.389122     -114.835228      -37.589905
 C         -44.627800     -114.181961      -35.419437
 C         -44.530830     -113.971718      -36.977364
 H         -41.485291     -115.536156      -37.322948
 H         -41.406475     -114.036987      -37.401333
 H         -43.274601     -114.408791      -33.682392
 H         -43.181915     -112.862366      -34.448002
 H         -43.655338     -115.857819      -37.643337
 H         -43.210388     -114.582458      -38.661728
 H         -45.376804     -113.492561      -35.185589
 H         -44.767700     -115.211647      -35.221241
 H         -45.432220     -114.356819      -37.464439
 H         -44.385506     -112.886009      -37.297005
