20
 generated by VMD
 C         -60.277359     -156.283173      -56.057148
 N         -60.770809     -155.317123      -55.784233
 H         -59.792778     -157.922409      -53.198441
 H         -59.797455     -157.225479      -56.098866
 C         -58.914280     -157.881042      -52.465820
 C         -58.065414     -156.614487      -52.383045
 C         -58.220181     -159.198196      -51.921040
 C         -57.216267     -156.417618      -51.138210
 C         -57.420383     -158.867798      -50.534321
 C         -56.436066     -157.675079      -50.697556
 H         -58.797276     -155.740234      -52.425636
 H         -57.373371     -156.639587      -53.234467
 H         -59.016022     -160.016006      -51.663292
 H         -57.566261     -159.623566      -52.687527
 H         -58.046715     -156.180466      -50.417706
 H         -56.472874     -155.588074      -51.200726
 H         -56.709785     -159.773117      -50.256561
 H         -58.243008     -158.745407      -49.704853
 H         -55.981281     -157.508209      -49.698963
 H         -55.734509     -157.953583      -51.514191
