20
 generated by VMD
 C         -40.709675     -100.082649      -29.724836
 N         -40.319908     -100.219063      -28.628355
 H         -37.336060     -100.137383      -30.575279
 H         -40.917576      -99.756248      -30.798220
 C         -36.465004      -99.532562      -30.810715
 C         -36.012356      -99.434258      -32.293961
 C         -35.400791      -99.232750      -29.694172
 C         -34.883778      -98.371956      -32.488987
 C         -34.223633      -98.278107      -29.920963
 C         -33.669968      -98.305595      -31.440102
 H         -36.768169      -98.998863      -32.948376
 H         -35.782238     -100.467194      -32.542168
 H         -35.983257      -99.067642      -28.793535
 H         -34.829792     -100.149811      -29.605055
 H         -35.154285      -97.353035      -32.566589
 H         -34.374943      -98.691338      -33.371250
 H         -33.360466      -98.593719      -29.240765
 H         -34.584831      -97.277069      -29.684570
 H         -33.119686      -97.418190      -31.593380
 H         -32.895382      -99.150505      -31.489391
