20
 generated by VMD
 C          -6.990997      -23.350420        2.348983
 N          -7.151333      -22.416988        1.756560
 H          -8.437063      -23.408524       -0.915363
 H          -9.198323      -22.450407       -2.184247
 C          -8.246452      -22.633352       -1.713925
 C          -7.397113      -23.317337       -2.780710
 C          -7.687279      -21.280651       -1.328389
 C          -7.032066      -22.352760       -3.927771
 C          -7.270491      -20.326792       -2.503018
 C          -6.365136      -21.082642       -3.465293
 H          -7.859769      -24.149050       -3.211909
 H          -6.446754      -23.568720       -2.237609
 H          -8.267447      -20.851498       -0.528519
 H          -6.722572      -21.462816       -0.849051
 H          -7.973581      -22.126554       -4.438546
 H          -6.346582      -22.888947       -4.612930
 H          -6.847291      -19.374599       -2.190942
 H          -8.185384      -20.062021       -3.024356
 H          -6.121831      -20.469452       -4.315152
 H          -5.437450      -21.294514       -2.936676
