20
 generated by VMD
 C         -78.866035     -207.992676      -76.301338
 N         -78.440308     -207.777130      -75.285141
 H         -79.420280     -210.294327      -73.278542
 H         -79.482613     -208.316299      -77.186234
 C         -78.746826     -210.161026      -72.414413
 C         -77.512978     -209.377625      -72.421158
 C         -78.897949     -211.252457      -71.502617
 C         -77.085770     -209.089371      -70.943306
 C         -78.627670     -210.840622      -70.131371
 C         -77.241455     -210.218414      -69.996529
 H         -77.595482     -208.503204      -73.051819
 H         -76.706825     -209.962753      -72.940331
 H         -79.847519     -211.721191      -71.791557
 H         -78.085983     -211.961990      -71.713356
 H         -77.641899     -208.152054      -70.667747
 H         -76.015350     -208.776688      -70.944084
 H         -78.419495     -211.741440      -69.475166
 H         -79.466484     -210.262146      -69.786354
 H         -76.871094     -209.866364      -69.041298
 H         -76.611465     -211.056519      -70.284393
