20
 generated by VMD
 C         -57.613365     -166.014694      -56.524036
 N         -58.098152     -166.853851      -55.909737
 H         -60.648083     -165.344543      -54.525627
 H         -57.075985     -165.338150      -57.133358
 C         -61.657734     -165.383942      -54.946075
 C         -61.798107     -166.730972      -55.608067
 C         -62.470917     -164.210037      -55.482536
 C         -63.233124     -166.994003      -55.852577
 C         -63.864643     -164.657150      -55.638336
 C         -63.940334     -165.862000      -56.536037
 H         -61.620163     -167.497223      -54.781700
 H         -61.275043     -166.831177      -56.580494
 H         -62.457710     -163.535019      -54.677349
 H         -62.101139     -163.685913      -56.378063
 H         -63.709343     -167.185303      -54.917324
 H         -63.436192     -167.939423      -56.325001
 H         -64.443237     -163.777252      -56.140434
 H         -64.220650     -164.928009      -54.656269
 H         -65.061020     -166.080032      -56.676453
 H         -63.487629     -165.652802      -57.544510
