20
 generated by VMD
 C         -31.028603      -75.131073      -21.512354
 N         -31.930651      -75.830048      -21.742760
 H         -28.441669      -76.211838      -20.832100
 H         -30.269630      -74.419792      -20.948347
 C         -27.485182      -75.870308      -21.098970
 C         -26.725094      -76.890244      -21.804342
 C         -26.732315      -74.695145      -20.616837
 C         -25.725229      -76.333824      -22.879358
 C         -25.685585      -74.160683      -21.701183
 C         -24.798742      -75.252693      -22.268217
 H         -27.465696      -77.668556      -22.325708
 H         -26.362047      -77.567566      -21.044216
 H         -27.383686      -73.761467      -20.540054
 H         -26.169027      -74.891197      -19.593725
 H         -26.415344      -75.956787      -23.671492
 H         -25.163158      -77.169701      -23.370548
 H         -25.016001      -73.389862      -21.248556
 H         -26.106207      -73.545303      -22.555885
 H         -24.146082      -74.835617      -23.051910
 H         -24.094597      -75.610580      -21.523491
