20
 generated by VMD
 C         -20.045952      -56.201267      -16.828281
 N         -21.051613      -56.394016      -16.369705
 H         -21.980341      -59.348942      -17.191898
 H         -18.924004      -55.835835      -16.832489
 C         -22.396528      -60.153187      -16.557425
 C         -22.745300      -59.607727      -15.249678
 C         -21.915094      -61.576267      -16.645679
 C         -21.548534      -59.713070      -14.373920
 C         -20.941141      -61.877346      -15.542650
 C         -21.117647      -61.160847      -14.198969
 H         -23.592880      -60.163273      -14.771560
 H         -23.039543      -58.508667      -15.376759
 H         -22.709061      -62.244682      -16.475628
 H         -21.494888      -61.759018      -17.629921
 H         -21.784180      -59.242931      -13.451899
 H         -20.758581      -59.182072      -14.836520
 H         -19.943256      -61.503590      -15.977738
 H         -20.922081      -62.954792      -15.214552
 H         -21.918793      -61.665142      -13.654961
 H         -20.293217      -61.274021      -13.447966
