20
 generated by VMD
 C         -10.431555      -39.804672       -6.781017
 N         -11.249225      -40.151901       -6.129385
 H         -13.652207      -40.489586       -8.930100
 H         -15.209047      -39.889877       -9.514415
 C         -14.618775      -40.833218       -9.333525
 C         -15.333035      -41.606113       -8.178408
 C         -14.689383      -41.682560      -10.653674
 C         -16.777872      -42.102543       -8.458037
 C         -16.139523      -42.089947      -10.966434
 C         -16.818356      -42.824776       -9.828591
 H         -15.365294      -40.963017       -7.341008
 H         -14.764050      -42.482452       -7.894145
 H         -14.326426      -41.089417      -11.452736
 H         -14.126162      -42.615768      -10.483753
 H         -17.403467      -41.207916       -8.572514
 H         -17.074556      -42.766190       -7.663552
 H         -16.161350      -42.654587      -11.964758
 H         -16.618711      -41.158157      -11.152219
 H         -17.855120      -43.080070      -10.062970
 H         -16.281082      -43.788208       -9.669930
