20
 generated by VMD
 C         -47.337444     -138.646576      -45.659924
 N         -46.971123     -138.360214      -46.764885
 H         -50.727276     -137.850174      -44.813473
 H         -47.594234     -139.031006      -44.634998
 C         -51.555897     -138.535965      -45.018433
 C         -51.689453     -139.107941      -46.455601
 C         -52.812431     -138.277328      -44.306763
 C         -52.933903     -140.034637      -46.611694
 C         -53.898903     -139.294617      -44.581364
 C         -54.182468     -139.497528      -45.994732
 H         -50.861778     -139.791061      -46.567284
 H         -51.666630     -138.275375      -47.266945
 H         -52.652733     -138.229675      -43.263142
 H         -53.106529     -137.310913      -44.571362
 H         -52.729595     -141.069016      -46.242653
 H         -52.937717     -140.046478      -47.749279
 H         -54.911171     -138.987869      -44.057457
 H         -53.546600     -140.160736      -44.118004
 H         -55.064102     -140.252075      -46.239368
 H         -54.618980     -138.656906      -46.494682
