20
 generated by VMD
 C          -1.214679      -12.713034        1.211305
 N          -0.669317      -12.785642        0.271552
 H          -4.242382      -12.958879        1.269189
 H          -5.886044      -13.331862        0.643402
 C          -4.987840      -13.758232        1.205077
 C          -5.509208      -14.034275        2.608954
 C          -4.444370      -14.961756        0.490626
 C          -6.569889      -15.174441        2.578998
 C          -5.480602      -16.018606        0.449635
 C          -5.970506      -16.459133        1.806826
 H          -6.026917      -13.158247        3.039871
 H          -4.663583      -14.504654        3.191004
 H          -4.137910      -14.845666       -0.607358
 H          -3.516980      -15.388786        1.040843
 H          -7.478790      -14.896126        2.062140
 H          -6.795193      -15.504245        3.577847
 H          -5.104597      -16.887865       -0.084641
 H          -6.329544      -15.683036       -0.107372
 H          -6.895774      -17.066814        1.662611
 H          -5.257638      -16.984758        2.476629
