20
 generated by VMD
 C         -67.953270     -179.558273      -58.824467
 N         -68.105675     -179.772034      -59.959835
 H         -67.502815     -176.813629      -59.652195
 H         -67.876884     -179.298187      -57.803383
 C         -66.452080     -176.804245      -60.036568
 C         -66.115562     -176.222977      -61.370491
 C         -65.270767     -177.227600      -59.231071
 C         -65.005211     -175.188339      -61.381409
 C         -64.232712     -176.142334      -59.133411
 C         -63.892262     -175.526764      -60.400089
 H         -66.974396     -175.878281      -61.990387
 H         -65.688881     -176.998962      -62.049385
 H         -65.678886     -177.613220      -58.287033
 H         -64.865578     -178.193085      -59.707500
 H         -65.330696     -174.295334      -60.897041
 H         -64.642632     -174.834335      -62.418991
 H         -63.292484     -176.599304      -58.701088
 H         -64.737305     -175.445709      -58.457729
 H         -63.210930     -174.664352      -60.233593
 H         -63.225658     -176.099976      -61.100727
