20
 generated by VMD
 C         -51.523224     -129.774750      -45.214211
 N         -51.657166     -130.005569      -46.336872
 H         -48.347107     -130.245499      -43.379368
 H         -51.054897     -129.541885      -44.285469
 C         -47.888355     -130.384857      -42.487377
 C         -48.039917     -131.763779      -41.919964
 C         -47.562115     -129.219757      -41.703503
 C         -46.816879     -132.026428      -41.115223
 C         -46.291443     -129.496567      -40.967300
 C         -46.407001     -130.900070      -40.192730
 H         -48.116734     -132.521011      -42.633549
 H         -48.907627     -131.892502      -41.142109
 H         -47.329472     -128.318817      -42.327496
 H         -48.338951     -129.015091      -41.056576
 H         -46.073589     -132.237289      -41.858177
 H         -47.059788     -132.919144      -40.472301
 H         -45.917126     -128.797485      -40.234833
 H         -45.395157     -129.624252      -41.751652
 H         -45.422512     -131.072449      -39.702496
 H         -47.170433     -130.717209      -39.440048
