20
 generated by VMD
 C         -62.840267     -174.772263      -54.553444
 N         -63.138145     -174.285370      -55.533173
 H         -63.686604     -173.173721      -58.023083
 H         -62.564308     -175.327148      -53.683449
 C         -63.698151     -172.212051      -58.499004
 C         -63.921925     -171.059982      -57.578930
 C         -64.422859     -172.108551      -59.779816
 C         -63.852333     -169.660187      -58.224152
 C         -64.242134     -170.743530      -60.488174
 C         -64.628395     -169.430695      -59.668819
 H         -63.206711     -171.243927      -56.805779
 H         -64.982155     -171.287338      -57.168652
 H         -64.162056     -173.012009      -60.385647
 H         -65.435371     -172.318420      -59.652840
 H         -62.766933     -169.410843      -58.374714
 H         -64.333069     -169.007187      -57.522076
 H         -64.819023     -170.835892      -61.448154
 H         -63.142708     -170.678238      -60.728878
 H         -64.397545     -168.395340      -60.105556
 H         -65.683678     -169.481430      -59.442879
