20
 generated by VMD
 C         -41.129200     -101.477539      -32.617123
 N         -41.947170     -101.508163      -33.475864
 H         -38.760658     -103.024658      -32.388325
 H         -40.425892     -101.202049      -31.904041
 C         -37.765373     -102.866440      -32.006397
 C         -36.573689     -102.739273      -33.055649
 C         -37.444057     -103.079033      -30.584539
 C         -35.253403     -102.250061      -32.352394
 C         -36.218452     -102.368279      -29.984800
 C         -34.985359     -102.725189      -30.861179
 H         -37.023170     -102.110298      -33.857765
 H         -36.515285     -103.771812      -33.481419
 H         -38.385654     -102.760445      -30.132730
 H         -37.428097     -104.206909      -30.331448
 H         -35.230885     -101.201645      -32.350117
 H         -34.425575     -102.598190      -32.966030
 H         -36.152489     -102.657631      -28.877993
 H         -36.475784     -101.302528      -29.991081
 H         -34.025066     -102.165878      -30.566278
 H         -34.890427     -103.801094      -30.872444
