20
 generated by VMD
 C         -11.589944      -25.922197       -0.874523
 N         -11.463657      -25.021091       -0.237713
 H          -7.851917      -26.229513       -1.143559
 H          -9.070457      -25.557049       -2.255778
 C          -8.005836      -25.659477       -2.117584
 C          -7.378473      -26.520418       -3.202793
 C          -7.391914      -24.237206       -2.069211
 C          -7.512443      -25.765289       -4.559308
 C          -7.555019      -23.449764       -3.433342
 C          -6.881941      -24.333855       -4.576691
 H          -7.858806      -27.528112       -3.285872
 H          -6.342686      -26.765804       -3.028218
 H          -7.870182      -23.684175       -1.268205
 H          -6.312154      -24.355162       -1.771955
 H          -8.603456      -25.778870       -4.791782
 H          -7.047912      -26.348635       -5.370955
 H          -7.110988      -22.429237       -3.379869
 H          -8.636181      -23.407541       -3.662786
 H          -7.197328      -23.885101       -5.513494
 H          -5.791019      -24.524050       -4.452952
