20
 generated by VMD
 C          -6.856308      -23.309439        2.945399
 N          -6.894162      -22.607786        2.081147
 H          -8.012759      -22.843777       -0.613542
 H          -8.980480      -22.279953       -1.997706
 C          -7.980255      -22.245310       -1.590119
 C          -7.142334      -23.036949       -2.599719
 C          -7.580298      -20.822857       -1.374226
 C          -6.997272      -22.319616       -3.976912
 C          -7.507315      -20.106239       -2.731286
 C          -6.583864      -20.843357       -3.743942
 H          -7.561254      -24.028482       -2.718751
 H          -6.098501      -22.968246       -2.212212
 H          -8.168446      -20.349163       -0.539537
 H          -6.605546      -20.819111       -0.880540
 H          -8.006066      -22.331440       -4.415164
 H          -6.398588      -22.928881       -4.689461
 H          -7.278260      -19.048941       -2.516128
 H          -8.505691      -19.982162       -3.177333
 H          -6.567889      -20.297869       -4.669878
 H          -5.566519      -20.881594       -3.357574
