20
 generated by VMD
 C         -40.630707     -100.199707      -30.261477
 N         -41.148815     -100.451767      -29.278667
 H         -37.438801     -100.462509      -30.731079
 H         -40.180923     -100.190559      -31.265051
 C         -36.357788     -100.073395      -30.820024
 C         -36.108826      -99.928024      -32.288673
 C         -35.321369     -100.146103      -29.797512
 C         -35.147869      -98.793625      -32.512295
 C         -34.366215      -98.980476      -30.049799
 C         -34.051006      -98.767166      -31.477816
 H         -37.063530      -99.690773      -32.721779
 H         -35.804218     -100.910019      -32.769577
 H         -35.660587     -100.113976      -28.780104
 H         -34.749622     -101.108002      -29.902771
 H         -35.660011      -97.804977      -32.433918
 H         -34.637180      -98.800926      -33.497791
 H         -33.465824      -98.934380      -29.320705
 H         -34.878506      -98.027435      -29.699356
 H         -33.466778      -97.873245      -31.546316
 H         -33.297619      -99.544342      -31.635357
