20
 generated by VMD
 C         -20.111374      -60.456867      -16.964767
 N         -19.079731      -60.186378      -17.454010
 H         -23.179056      -60.493042      -16.844656
 H         -21.193911      -60.545940      -16.628256
 C         -23.281446      -61.589386      -16.786749
 C         -23.277662      -62.409176      -18.054890
 C         -23.340023      -62.200996      -15.419751
 C         -23.670158      -63.909779      -17.710556
 C         -23.067223      -63.599892      -15.295492
 C         -24.002922      -64.328590      -16.249533
 H         -22.388849      -62.306286      -18.643261
 H         -23.997517      -61.996185      -18.673351
 H         -22.709915      -61.595417      -14.735168
 H         -24.252691      -61.991390      -14.954401
 H         -22.718006      -64.446419      -18.025644
 H         -24.381796      -64.292610      -18.511284
 H         -23.231461      -64.021446      -14.326929
 H         -22.030256      -63.785076      -15.545386
 H         -23.793875      -65.369980      -16.060583
 H         -25.017643      -64.184128      -16.093254
