20
 generated by VMD
 C          -9.815536      -24.741590        0.530430
 N         -10.467569      -25.206818       -0.236692
 H          -6.526251      -24.268139       -0.668468
 H          -8.203650      -24.007320       -1.254320
 C          -7.142567      -24.102144       -1.591966
 C          -7.132726      -25.238241       -2.589952
 C          -6.684241      -22.776917       -2.344668
 C          -8.063090      -24.982738       -3.794465
 C          -7.609044      -22.475777       -3.478080
 C          -7.727436      -23.620380       -4.493829
 H          -7.607047      -26.069506       -1.974442
 H          -6.173555      -25.432518       -3.006979
 H          -6.705914      -21.925739       -1.668054
 H          -5.666707      -23.038458       -2.675617
 H          -9.068636      -24.858019       -3.326800
 H          -7.947683      -25.909658       -4.457315
 H          -7.260233      -21.602491       -4.024695
 H          -8.627738      -22.246471       -3.116827
 H          -8.383990      -23.356249       -5.290052
 H          -6.735506      -23.754408       -4.966099
