20
 generated by VMD
 C         -13.760024      -28.056509       -2.882324
 N         -14.044440      -27.166233       -3.509318
 H         -10.344273      -27.985308       -3.018781
 H          -9.864789      -26.925489       -4.315663
 C          -9.486236      -27.730202       -3.605840
 C          -8.881808      -28.926250       -4.301595
 C          -8.454975      -27.097477       -2.563284
 C          -7.571095      -28.571592       -5.022735
 C          -7.214106      -26.674606       -3.380754
 C          -6.599174      -27.979843       -3.979134
 H          -9.583787      -29.312193       -5.113759
 H          -8.706254      -29.818830       -3.762693
 H          -8.967780      -26.216536       -2.177667
 H          -8.287937      -27.794701       -1.757818
 H          -7.790858      -27.925928       -5.912834
 H          -7.193729      -29.540806       -5.525889
 H          -6.456335      -26.206991       -2.766442
 H          -7.457008      -25.909649       -4.126280
 H          -5.660636      -27.813545       -4.528862
 H          -6.397671      -28.650543       -3.170490
