20
 generated by VMD
 C         -11.965859      -25.804020       -0.151367
 N         -12.984625      -26.159702       -0.401883
 H          -9.586638      -26.823004       -2.754482
 H          -9.646558      -25.812101       -4.224059
 C          -8.919369      -26.250536       -3.505044
 C          -7.906494      -27.218258       -4.085825
 C          -8.321758      -25.025137       -2.738951
 C          -6.725182      -26.539639       -4.786404
 C          -7.160946      -24.434624       -3.524065
 C          -6.106900      -25.436848       -4.021971
 H          -8.476101      -27.885393       -4.833708
 H          -7.441629      -27.877974       -3.303685
 H          -9.049438      -24.243649       -2.664494
 H          -7.977062      -25.380018       -1.722269
 H          -7.117814      -26.215527       -5.762179
 H          -5.921230      -27.302029       -5.006298
 H          -6.635370      -23.649620       -2.919401
 H          -7.575694      -23.809988       -4.345194
 H          -5.314362      -24.895721       -4.517222
 H          -5.558290      -25.777893       -3.134703
