20
 generated by VMD
 C         -58.157322     -167.568588      -55.354771
 N         -57.149479     -167.957535      -55.033405
 H         -61.520443     -166.726013      -55.043236
 H         -59.149376     -167.208130      -55.602966
 C         -61.975208     -166.246170      -55.915184
 C         -62.230015     -166.994812      -57.205399
 C         -62.735142     -164.926834      -55.678493
 C         -63.694817     -167.371689      -57.053822
 C         -64.242249     -165.345596      -55.651485
 C         -64.596375     -166.192520      -56.842579
 H         -61.491386     -167.901260      -57.255867
 H         -61.898193     -166.296234      -57.921875
 H         -62.370049     -164.520264      -54.675026
 H         -62.540413     -164.186905      -56.370319
 H         -63.939064     -168.003677      -56.235264
 H         -64.042831     -167.960922      -57.899651
 H         -64.883064     -164.351456      -55.507828
 H         -64.358414     -165.823120      -54.634033
 H         -65.614723     -166.513199      -56.597561
 H         -64.662140     -165.550217      -57.765694
