20
 generated by VMD
 C          -1.434264      -13.282812        0.753722
 N          -0.480114      -13.624010        0.270341
 H          -4.190873      -13.971642        2.159219
 H          -5.089036      -13.685536        0.655756
 C          -4.936571      -14.451403        1.476564
 C          -6.280206      -14.593623        2.238455
 C          -4.328580      -15.804584        1.058166
 C          -7.245886      -15.521383        1.591058
 C          -5.371982      -16.689804        0.236169
 C          -6.622603      -16.808685        1.120341
 H          -6.700861      -13.588996        2.294609
 H          -5.991550      -14.925035        3.209597
 H          -3.467101      -15.592473        0.470857
 H          -4.117055      -16.274004        1.946807
 H          -7.640661      -15.075786        0.641379
 H          -8.115899      -15.700448        2.280135
 H          -4.867732      -17.677452        0.055027
 H          -5.566921      -16.161791       -0.715731
 H          -7.431451      -17.351877        0.621538
 H          -6.322960      -17.321274        2.067933
