20
 generated by VMD
 C         -67.463776     -191.864578      -67.374893
 N         -67.356010     -192.744904      -66.598076
 H         -69.980682     -189.741470      -65.573715
 H         -67.558464     -191.247620      -68.213669
 C         -71.010193     -189.880920      -65.325333
 C         -71.784653     -190.972137      -66.022987
 C         -71.507225     -189.244125      -63.997738
 C         -73.103981     -191.441559      -65.434013
 C         -72.946823     -189.685745      -63.627670
 C         -73.218567     -191.143906      -63.921600
 H         -71.126595     -191.899185      -65.853424
 H         -71.939987     -190.710587      -67.043739
 H         -70.808495     -189.635910      -63.162689
 H         -71.489952     -188.173782      -64.151978
 H         -73.259094     -192.536972      -65.691002
 H         -73.862961     -191.071228      -66.092628
 H         -73.544533     -188.912949      -64.082504
 H         -73.167694     -189.425690      -62.556236
 H         -72.357635     -191.641083      -63.308182
 H         -74.246246     -191.288620      -63.576775
