20
 generated by VMD
 C         -22.634790      -55.541763      -16.532743
 N         -23.082628      -54.523739      -16.612234
 H         -19.558405      -55.485294      -14.930725
 H         -22.185770      -56.521755      -16.595795
 C         -19.690302      -56.590652      -14.729103
 C         -20.665543      -56.807327      -13.726253
 C         -18.795383      -57.655163      -15.235195
 C         -20.989141      -58.216736      -13.387584
 C         -18.943026      -58.990143      -14.720603
 C         -19.735481      -59.068245      -13.492249
 H         -21.513420      -56.458786      -14.248353
 H         -20.517195      -56.196693      -12.876062
 H         -18.828341      -57.685867      -16.277748
 H         -17.760830      -57.282513      -15.035818
 H         -21.637506      -58.715206      -14.071815
 H         -21.529152      -58.297256      -12.416471
 H         -17.958664      -59.409042      -14.604712
 H         -19.497522      -59.532700      -15.527232
 H         -20.045591      -60.093929      -13.252609
 H         -19.058262      -58.760380      -12.634160
