20
 generated by VMD
 C         -30.692375      -75.648788      -23.200403
 N         -30.870005      -75.879555      -24.338562
 H         -29.276051      -78.966660      -21.759254
 H         -30.038610      -75.683167      -22.244499
 C         -28.447315      -78.198112      -21.779591
 C         -27.525972      -78.273918      -22.945835
 C         -27.763937      -77.809601      -20.452772
 C         -26.636518      -76.976791      -23.125355
 C         -26.838341      -76.620918      -20.629223
 C         -25.884569      -76.736404      -21.848415
 H         -28.183407      -78.262314      -23.838949
 H         -26.888182      -79.099220      -22.828398
 H         -28.530081      -77.443161      -19.762676
 H         -27.212780      -78.575912      -20.030340
 H         -27.243998      -76.186729      -23.533066
 H         -25.842743      -77.301346      -23.826296
 H         -26.064844      -76.540604      -19.878252
 H         -27.443052      -75.599434      -20.492834
 H         -25.363995      -75.796089      -21.947096
 H         -25.182196      -77.593193      -21.735638
