20
 generated by VMD
 C         -49.611145     -133.095169      -47.115379
 N         -49.426498     -131.963531      -47.010891
 H         -47.695286     -134.326553      -43.869549
 H         -49.636654     -134.167816      -47.379280
 C         -48.683556     -134.686066      -43.603783
 C         -49.246113     -136.024109      -44.022873
 C         -49.669807     -133.702438      -43.184196
 C         -49.987213     -136.619659      -42.862629
 C         -50.432255     -134.235443      -41.927307
 C         -51.042965     -135.611374      -42.319477
 H         -48.520542     -136.627319      -44.444862
 H         -49.974812     -135.828033      -44.851089
 H         -48.992886     -132.881058      -42.953728
 H         -50.393356     -133.346817      -44.051006
 H         -49.245388     -136.875107      -42.060207
 H         -50.520988     -137.563782      -43.180424
 H         -51.268864     -133.571182      -41.640324
 H         -49.811081     -134.313492      -41.072971
 H         -51.533424     -136.104050      -41.542484
 H         -51.746639     -135.498138      -43.207958
