20
 generated by VMD
 C         -29.840698      -79.999672      -26.451948
 N         -29.996857      -79.007797      -25.910360
 H         -28.730930      -82.944977      -25.859653
 H         -29.746252      -81.007866      -27.015232
 C         -29.274696      -82.829536      -24.878092
 C         -28.811565      -81.877899      -23.738626
 C         -29.897640      -84.143890      -24.380638
 C         -29.986811      -81.783920      -22.617073
 C         -31.086784      -83.779610      -23.476414
 C         -30.707277      -83.026344      -22.242945
 H         -28.418600      -80.975815      -24.068113
 H         -28.019127      -82.455109      -23.220011
 H         -30.253044      -84.758667      -25.268724
 H         -29.205717      -84.862801      -23.851406
 H         -30.579823      -80.952339      -23.097815
 H         -29.693851      -81.299164      -21.758043
 H         -31.613031      -84.675346      -23.055990
 H         -31.936495      -83.163773      -23.984638
 H         -31.562868      -82.675514      -21.720526
 H         -30.135717      -83.578865      -21.418011
