20
 generated by VMD
 C         -31.169369      -75.621208      -21.432785
 N         -32.332832      -75.408607      -21.526863
 H         -27.942091      -75.687149      -19.998583
 H         -30.141441      -75.835968      -21.616858
 C         -27.122944      -75.432121      -20.711456
 C         -26.629864      -76.592339      -21.540808
 C         -26.199018      -74.214401      -20.514174
 C         -25.785183      -76.072006      -22.857719
 C         -25.427280      -73.827042      -21.754566
 C         -24.701561      -74.945312      -22.477146
 H         -27.573664      -77.083939      -21.960684
 H         -25.938345      -77.196068      -20.902599
 H         -26.747389      -73.415176      -19.979996
 H         -25.490728      -74.518242      -19.668653
 H         -26.439148      -75.670990      -23.638462
 H         -25.333813      -76.983170      -23.265341
 H         -24.616217      -73.173737      -21.461555
 H         -26.194380      -73.422569      -22.409187
 H         -24.443705      -74.482582      -23.417196
 H         -23.771996      -75.158325      -21.996304
