20
 generated by VMD
 C          -9.344770      -24.762173        0.852187
 N         -10.015509      -25.379923        1.478382
 H          -6.812488      -23.143744       -0.618233
 H          -8.245174      -22.626688       -1.394319
 C          -7.273592      -23.039934       -1.622884
 C          -7.413538      -24.337099       -2.353136
 C          -6.469870      -22.002300       -2.435933
 C          -8.057773      -24.241652       -3.745632
 C          -7.059144      -21.845642       -3.873716
 C          -7.325592      -23.211428       -4.615141
 H          -8.016548      -25.112152       -1.686309
 H          -6.430135      -24.717222       -2.652381
 H          -6.400695      -21.049995       -1.889070
 H          -5.482533      -22.441362       -2.418354
 H          -9.028097      -23.800388       -3.619475
 H          -8.036417      -25.252060       -4.204820
 H          -6.499779      -21.165531       -4.512183
 H          -8.052375      -21.386675       -3.689454
 H          -7.753710      -23.129078       -5.603343
 H          -6.314715      -23.579094       -4.839787
