20
 generated by VMD
 C         -20.349384      -57.271538      -16.824228
 N         -19.274704      -56.904789      -17.009975
 H         -22.623301      -59.458282      -17.470959
 H         -21.174202      -57.748528      -16.547243
 C         -22.420565      -60.301231      -16.693335
 C         -23.612329      -61.034973      -16.193155
 C         -21.109949      -60.995605      -16.427820
 C         -23.466518      -61.401531      -14.659123
 C         -21.348999      -62.292820      -15.690963
 C         -22.113892      -62.019150      -14.366873
 H         -23.823452      -61.925743      -16.828926
 H         -24.404472      -60.348469      -16.159506
 H         -20.521830      -61.232738      -17.358904
 H         -20.459620      -60.346802      -15.821992
 H         -24.341551      -62.061626      -14.416453
 H         -23.685221      -60.587223      -13.922814
 H         -20.264242      -62.493702      -15.474910
 H         -21.926432      -63.073692      -16.260456
 H         -22.124266      -62.913857      -13.674152
 H         -21.537029      -61.359264      -13.676255
