20
 generated by VMD
 C         -12.745265      -27.567341       -1.732635
 N         -11.712090      -27.151623       -1.892771
 H         -10.417445      -26.099974       -4.550509
 H          -8.926406      -25.770292       -5.449088
 C          -9.327055      -26.214178       -4.533346
 C          -8.991158      -27.697451       -4.422125
 C          -8.687988      -25.425024       -3.346475
 C          -7.548605      -28.029001       -4.221363
 C          -7.182096      -25.753458       -3.304512
 C          -7.039185      -27.265942       -2.988015
 H          -9.220197      -28.121033       -5.467412
 H          -9.565182      -28.119602       -3.612842
 H          -8.780906      -24.344334       -3.548344
 H          -9.161306      -25.705378       -2.405778
 H          -6.917729      -27.756365       -5.095048
 H          -7.456941      -29.101208       -3.918142
 H          -6.766959      -25.172083       -2.489064
 H          -6.716699      -25.470541       -4.278350
 H          -5.953098      -27.491488       -2.884953
 H          -7.519681      -27.598316       -2.086971
