20
 generated by VMD
 C         -44.822605     -122.417305      -35.670227
 N         -44.953148     -123.256607      -34.835983
 H         -45.039734     -122.633102      -38.673550
 H         -44.679333     -121.580658      -36.339138
 C         -44.913368     -121.760132      -39.392784
 C         -43.439346     -121.403236      -39.672707
 C         -46.086979     -120.808395      -39.721859
 C         -43.301411     -120.363838      -40.709949
 C         -45.767879     -119.656265      -40.606579
 C         -44.344494     -119.184753      -40.479374
 H         -42.985638     -122.372208      -39.944431
 H         -42.853970     -120.961678      -38.734135
 H         -47.020802     -121.198540      -40.139992
 H         -46.325966     -120.431496      -38.757912
 H         -43.617764     -120.872879      -41.632690
 H         -42.285500     -120.030907      -40.653618
 H         -46.414925     -118.790108      -40.610237
 H         -45.748676     -119.985840      -41.601212
 H         -44.150272     -118.373390      -41.220852
 H         -44.211681     -118.734940      -39.489464
