20
 generated by VMD
 C         -38.544968      -98.782570      -27.612480
 N         -38.001869      -99.470085      -26.838556
 H         -37.223198      -97.824097      -30.269255
 H         -39.193043      -98.293610      -28.348072
 C         -36.345581      -97.324142      -30.618839
 C         -35.464092      -97.904083      -31.732885
 C         -35.592140      -96.585297      -29.605406
 C         -34.550480      -96.828568      -32.185097
 C         -34.238415      -95.907112      -29.965895
 C         -33.481350      -96.561111      -31.103052
 H         -35.980358      -98.164253      -32.611511
 H         -34.916607      -98.760521      -31.315489
 H         -36.222599      -95.931358      -29.062002
 H         -35.348999      -97.349045      -28.863766
 H         -35.186874      -95.886444      -32.340656
 H         -33.974606      -97.033478      -33.139671
 H         -33.652573      -95.840034      -29.057869
 H         -34.405338      -94.858032      -30.190016
 H         -32.593258      -95.868500      -31.315699
 H         -33.116337      -97.523148      -30.916048
