20
 generated by VMD
 C         -79.387985     -204.826584      -70.810402
 N         -80.475662     -205.295410      -70.810280
 H         -76.975616     -203.120941      -68.892471
 H         -78.405678     -204.309494      -71.059235
 C         -75.961197     -203.164352      -69.408966
 C         -75.524361     -201.946945      -70.187256
 C         -74.912621     -204.171249      -69.068321
 C         -74.082207     -201.645294      -70.472862
 C         -73.452492     -203.494125      -69.010185
 C         -73.106537     -202.854813      -70.324066
 H         -75.870995     -201.140091      -69.527138
 H         -76.094704     -201.916855      -71.155357
 H         -75.141335     -204.664841      -68.159050
 H         -74.852478     -204.966400      -69.737495
 H         -73.790764     -200.841263      -69.747978
 H         -74.039047     -201.239853      -71.532143
 H         -72.770164     -204.299057      -68.820251
 H         -73.373520     -202.879105      -68.218613
 H         -72.093132     -202.565674      -70.339340
 H         -73.182297     -203.493378      -71.136688
