20
 generated by VMD
 C         -26.890877      -71.790100      -17.579084
 N         -27.034309      -72.901062      -17.252207
 H         -24.526079      -69.863388      -18.691654
 H         -26.616846      -70.753578      -17.825800
 C         -24.795443      -70.296890      -19.640409
 C         -24.210766      -71.480499      -20.317947
 C         -25.846653      -69.470062      -20.337238
 C         -25.264332      -72.107956      -21.385357
 C         -26.721001      -70.120659      -21.362246
 C         -25.777477      -70.937576      -22.285101
 H         -23.806828      -72.246170      -19.613008
 H         -23.325676      -70.914574      -20.730244
 H         -26.507837      -69.075905      -19.511864
 H         -25.358597      -68.660912      -20.848192
 H         -26.054552      -72.582375      -20.859793
 H         -24.825296      -72.842720      -22.062288
 H         -27.303297      -69.362938      -22.022854
 H         -27.505199      -70.855484      -20.839924
 H         -26.253889      -71.373383      -23.159170
 H         -25.004324      -70.345184      -22.691723
