20
 generated by VMD
 C         -69.351250     -180.032013      -62.003910
 N         -69.528908     -181.106857      -62.370934
 H         -66.727310     -180.406937      -59.063480
 H         -69.270691     -179.030914      -61.715889
 C         -66.217567     -179.601883      -59.651344
 C         -65.306229     -179.773438      -60.868862
 C         -66.105385     -178.284576      -58.859428
 C         -65.415085     -178.546860      -61.767056
 C         -65.896370     -177.097412      -59.760162
 C         -64.949348     -177.365540      -60.962898
 H         -65.701271     -180.711914      -61.372391
 H         -64.222023     -179.879410      -60.432911
 H         -66.984497     -178.171585      -58.175964
 H         -65.232895     -178.304062      -58.197273
 H         -66.490326     -178.444092      -62.237339
 H         -64.823189     -178.660477      -62.775192
 H         -65.663277     -176.212036      -59.192684
 H         -66.834442     -176.876816      -60.257462
 H         -65.105461     -176.488174      -61.440056
 H         -64.007530     -177.530106      -60.484753
