20
 generated by VMD
 C         -47.768810     -139.626205      -46.003548
 N         -46.708977     -139.121353      -46.126980
 H         -50.983192     -138.739365      -44.810497
 H         -48.835831     -139.808914      -45.789082
 C         -51.892754     -139.095383      -45.272591
 C         -51.923084     -139.338364      -46.689220
 C         -53.093678     -138.814697      -44.576313
 C         -53.041588     -140.358154      -46.985153
 C         -54.189629     -139.840210      -44.959339
 C         -54.405861     -139.976456      -46.420376
 H         -50.960094     -139.772202      -47.093204
 H         -52.010448     -138.382919      -47.257488
 H         -53.011429     -138.820511      -43.450283
 H         -53.242130     -137.744644      -44.767925
 H         -52.721062     -141.323929      -46.573624
 H         -53.063908     -140.453613      -48.088943
 H         -55.155186     -139.575500      -44.566349
 H         -53.912354     -140.771530      -44.338501
 H         -55.145863     -140.793549      -46.738564
 H         -54.917015     -139.122696      -46.840317
