20
 generated by VMD
 C         -40.786743     -102.425529      -34.993004
 N         -41.544540     -102.256393      -35.856613
 H         -39.872444     -104.746895      -32.198723
 H         -39.868881     -102.582596      -34.425488
 C         -38.863194     -104.820488      -32.093784
 C         -37.817020     -104.005661      -32.843933
 C         -38.351128     -105.942757      -31.186552
 C         -36.536854     -103.925720      -32.057892
 C         -37.123856     -105.604225      -30.408867
 C         -36.049271     -105.195404      -31.341875
 H         -38.182140     -102.986115      -33.051781
 H         -37.836880     -104.477463      -33.821274
 H         -39.126972     -106.287735      -30.494204
 H         -38.276047     -106.731178      -31.903118
 H         -36.760174     -103.228668      -31.264959
 H         -35.742626     -103.403252      -32.531685
 H         -36.729118     -106.498558      -29.971420
 H         -37.299862     -104.864456      -29.558298
 H         -35.263493     -104.877892      -30.738609
 H         -35.640896     -106.019051      -31.981998
