20
 generated by VMD
 C         -31.097633      -74.810074      -21.875374
 N         -31.412588      -75.941811      -21.773638
 H         -28.613737      -76.645615      -20.835215
 H         -30.667587      -74.068474      -22.452675
 C         -27.642988      -76.268539      -21.245199
 C         -26.755634      -77.321068      -21.961952
 C         -27.010956      -75.116547      -20.668621
 C         -25.743532      -76.572403      -22.959435
 C         -26.058899      -74.367615      -21.613222
 C         -25.027325      -75.451714      -22.152695
 H         -27.284676      -78.146225      -22.575556
 H         -26.083664      -77.772804      -21.177332
 H         -27.827761      -74.355324      -20.276020
 H         -26.470690      -75.455948      -19.721598
 H         -26.385164      -76.183723      -23.788881
 H         -24.938463      -77.143219      -23.432577
 H         -25.502951      -73.638023      -20.982040
 H         -26.557629      -73.816933      -22.508833
 H         -24.518797      -74.834251      -22.904192
 H         -24.391325      -75.905205      -21.309118
