20
 generated by VMD
 C         -67.565865     -191.748825      -66.424149
 N         -66.798798     -191.538605      -67.262413
 H         -70.184433     -189.764038      -66.246086
 H         -68.270424     -191.660126      -65.657478
 C         -71.035957     -189.969681      -65.572235
 C         -72.026253     -191.095917      -65.758270
 C         -71.072968     -189.214432      -64.252701
 C         -73.332909     -191.055862      -65.004326
 C         -72.451797     -189.213394      -63.630371
 C         -73.091728     -190.582184      -63.510700
 H         -71.464691     -192.096298      -65.496330
 H         -72.324425     -191.034393      -66.814995
 H         -70.435143     -189.838058      -63.539677
 H         -70.768356     -188.181030      -64.377663
 H         -73.825157     -192.047684      -64.870117
 H         -74.142220     -190.561066      -65.541580
 H         -73.137222     -188.569763      -64.130707
 H         -72.587875     -188.718109      -62.639709
 H         -72.227196     -191.125427      -63.012478
 H         -73.995186     -190.711884      -63.069942
