20
 generated by VMD
 C         -43.266003     -121.206093      -35.674953
 N         -43.284954     -120.501862      -34.767624
 H         -44.574230     -122.154572      -39.233009
 H         -42.999191     -121.815071      -36.468246
 C         -44.482082     -121.043083      -39.120293
 C         -43.357765     -120.413651      -39.759274
 C         -45.708031     -120.179146      -38.706776
 C         -43.553814     -119.077370      -40.497864
 C         -45.878681     -118.855316      -39.402458
 C         -44.510674     -118.181847      -39.660629
 H         -43.036293     -121.225647      -40.467289
 H         -42.559559     -120.214684      -39.024864
 H         -46.592945     -120.798912      -38.726421
 H         -45.498203     -120.138336      -37.618462
 H         -43.868980     -119.123238      -41.498890
 H         -42.556614     -118.647041      -40.660110
 H         -46.678963     -118.298248      -38.965508
 H         -46.263683     -119.021286      -40.375301
 H         -44.714359     -117.190094      -40.157204
 H         -44.154705     -118.039688      -38.596478
