20
 generated by VMD
 C         -67.561768     -177.868820      -57.622555
 N         -67.377609     -178.770752      -56.894897
 H         -64.632195     -176.498550      -59.705269
 H         -67.676086     -177.004868      -58.221924
 C         -64.495125     -175.420456      -59.673176
 C         -65.710548     -174.521896      -59.647766
 C         -63.202408     -174.919800      -60.212677
 C         -65.342773     -173.002640      -59.472603
 C         -62.967331     -173.450607      -60.179504
 C         -64.214737     -172.683548      -60.516747
 H         -66.401390     -174.868912      -58.795952
 H         -66.320572     -174.730057      -60.481701
 H         -62.517429     -175.540176      -59.640724
 H         -63.254597     -175.309662      -61.165268
 H         -65.057747     -172.710556      -58.410515
 H         -66.252434     -172.314667      -59.543217
 H         -62.267368     -173.285431      -61.011677
 H         -62.492977     -172.910965      -59.322582
 H         -64.186317     -171.636383      -60.291985
 H         -64.547943     -172.763397      -61.538467
