20
 generated by VMD
 C         -73.305138     -200.006546      -65.692329
 N         -73.809677     -200.811737      -64.997757
 H         -71.676903     -197.015503      -66.928543
 H         -72.927254     -199.380829      -66.451546
 C         -72.315079     -196.504745      -67.661789
 C         -73.354118     -195.574951      -67.159279
 C         -72.386330     -197.112457      -69.105019
 C         -74.234756     -195.056854      -68.298119
 C         -73.862236     -197.375854      -69.395485
 C         -74.752724     -196.230011      -69.135483
 H         -73.035500     -194.781647      -66.533508
 H         -74.007202     -196.234268      -66.452385
 H         -72.003578     -196.358887      -69.763634
 H         -71.798920     -198.005661      -69.197418
 H         -73.572021     -194.394684      -68.846039
 H         -75.090698     -194.431274      -67.945999
 H         -74.228508     -198.190598      -68.754250
 H         -73.928795     -197.784210      -70.373100
 H         -74.922997     -195.690460      -70.239548
 H         -75.827881     -196.630051      -68.995811
