20
 generated by VMD
 C         -62.877937     -172.205887      -55.237423
 N         -62.489792     -173.264572      -55.161762
 H         -61.537605     -171.476654      -58.714176
 H         -63.349819     -171.264694      -55.299789
 C         -62.328152     -170.767853      -58.819618
 C         -62.340069     -169.467712      -57.983471
 C         -63.763123     -171.352859      -58.932346
 C         -63.707268     -168.598068      -57.969299
 C         -64.892174     -170.379898      -59.029850
 C         -64.963463     -169.434769      -57.913586
 H         -61.526653     -168.724258      -58.362198
 H         -62.112988     -169.618591      -57.019558
 H         -63.652447     -172.056320      -59.713875
 H         -63.928860     -172.040146      -58.096134
 H         -63.645615     -167.973633      -58.930050
 H         -63.744419     -167.805573      -57.104343
 H         -65.882523     -170.953049      -59.187462
 H         -64.836708     -169.753601      -59.984211
 H         -65.851852     -168.882446      -58.170170
 H         -65.105225     -169.912003      -57.006905
