20
 generated by VMD
 C         -19.517092      -57.937813      -17.069990
 N         -19.264324      -58.493462      -18.060141
 H         -22.922968      -59.548714      -16.518051
 H         -19.974737      -57.406502      -16.350822
 C         -22.743240      -60.655293      -16.411253
 C         -24.012672      -61.509945      -16.644094
 C         -22.016768      -60.993702      -15.173955
 C         -23.486273      -62.966629      -16.760315
 C         -21.923006      -62.468357      -14.766830
 C         -22.974998      -63.340076      -15.325424
 H         -24.392199      -61.261341      -17.628361
 H         -24.752707      -61.339825      -15.833089
 H         -20.985147      -60.654346      -15.243394
 H         -22.348343      -60.401215      -14.317351
 H         -22.740492      -63.064674      -17.526707
 H         -24.391390      -63.540504      -16.865641
 H         -21.656895      -62.516083      -13.664800
 H         -20.917624      -62.858582      -15.072603
 H         -22.682266      -64.411461      -15.220947
 H         -23.810286      -63.216171      -14.686910
