20
 generated by VMD
 C         -37.705223      -98.652023      -27.477140
 N         -37.632023      -98.415466      -26.353296
 H         -36.778431      -96.472206      -29.603849
 H         -37.666656      -98.742378      -28.596979
 C         -35.749100      -96.655952      -29.782150
 C         -35.349174      -97.347404      -31.008186
 C         -34.652241      -95.735207      -29.077219
 C         -34.925919      -96.333771      -32.031609
 C         -34.140514      -94.738258      -30.181274
 C         -33.759129      -95.548836      -31.358280
 H         -36.130535      -98.105919      -31.208447
 H         -34.471718      -97.909813      -30.700665
 H         -34.896862      -95.015930      -28.291899
 H         -33.935619      -96.437035      -28.598927
 H         -35.820644      -95.700958      -32.202610
 H         -34.652523      -96.769112      -33.037407
 H         -33.273277      -94.128830      -29.822241
 H         -34.988937      -93.952499      -30.445890
 H         -33.507206      -94.881279      -32.179016
 H         -32.947224      -96.167221      -31.296747
