20
 generated by VMD
 C         -57.553001     -165.856094      -56.577534
 N         -57.957699     -166.774536      -56.063412
 H         -60.608196     -164.984955      -54.410038
 H         -57.062965     -165.096634      -57.142475
 C         -61.596668     -165.300903      -54.787506
 C         -61.870155     -166.668579      -55.388561
 C         -62.403168     -164.172119      -55.454647
 C         -63.273846     -167.002792      -55.784977
 C         -63.849091     -164.521896      -55.732201
 C         -63.977966     -165.833206      -56.461254
 H         -61.515842     -167.317169      -54.675209
 H         -61.097431     -166.810516      -56.198589
 H         -62.523674     -163.284149      -54.745064
 H         -61.836235     -163.903595      -56.298473
 H         -63.754421     -167.246017      -54.887714
 H         -63.269909     -167.864822      -56.443935
 H         -64.395508     -163.754822      -56.232368
 H         -64.467926     -164.451508      -54.821392
 H         -65.023582     -166.087738      -56.595833
 H         -63.445259     -165.728516      -57.396732
