20
 generated by VMD
 C         -38.795490     -107.982559      -37.487709
 N         -38.991653     -106.967644      -37.960274
 H         -40.097553     -108.444397      -35.068886
 H         -38.753643     -108.802971      -36.795391
 C         -40.437550     -109.208939      -34.431995
 C         -39.507614     -110.381371      -34.287216
 C         -41.901424     -109.391281      -34.114170
 C         -39.772999     -111.166061      -32.998280
 C         -42.052788     -110.113342      -32.750111
 C         -41.328045     -111.442596      -32.855911
 H         -38.421402     -110.092819      -34.290733
 H         -39.565094     -111.120049      -35.118065
 H         -42.373520     -108.421188      -33.975681
 H         -42.350952     -109.995804      -34.961258
 H         -39.567795     -110.495224      -32.169697
 H         -39.157307     -111.999466      -33.009209
 H         -43.173393     -110.245804      -32.537952
 H         -41.587868     -109.383827      -32.008072
 H         -41.543827     -112.057434      -32.005276
 H         -41.790005     -112.087601      -33.740452
