20
 generated by VMD
 C         -12.103334      -31.508183       -8.526923
 N         -12.241570      -30.631973       -7.817388
 H         -11.119031      -35.054276       -7.843398
 H         -12.282710      -33.989754       -7.149039
 C         -11.639485      -34.780304       -6.929911
 C         -10.584684      -34.238945       -5.859453
 C         -12.269424      -36.060955       -6.402308
 C         -11.199118      -34.070786       -4.384141
 C         -12.846754      -35.903400       -4.978701
 C         -11.792901      -35.442028       -4.048115
 H         -10.257045      -33.294411       -6.219794
 H          -9.641884      -34.824242       -5.786576
 H         -13.088877      -36.296463       -7.069447
 H         -11.602182      -36.929798       -6.393731
 H         -11.994892      -33.292480       -4.392578
 H         -10.402242      -33.789581       -3.707392
 H         -13.139276      -36.889233       -4.718213
 H         -13.822747      -35.280800       -5.032182
 H         -12.267447      -35.356865       -3.084863
 H         -10.929042      -36.149143       -3.928325
