20
 generated by VMD
 C         -38.309273     -109.670769      -36.451851
 N         -37.644436     -108.988510      -35.788181
 H         -41.901897     -110.845589      -37.199352
 H         -38.832024     -110.385345      -37.137829
 C         -41.898304     -111.474609      -36.298103
 C         -42.074287     -112.957458      -36.238327
 C         -41.963341     -110.564369      -35.073162
 C         -41.819065     -113.597603      -34.861553
 C         -42.038898     -111.310173      -33.727741
 C         -42.482857     -112.730629      -33.872883
 H         -41.279289     -113.340462      -36.929810
 H         -43.061817     -113.207504      -36.609562
 H         -41.055660     -109.956085      -35.079731
 H         -42.818275     -109.869461      -35.063461
 H         -40.701527     -113.672180      -34.718933
 H         -42.267910     -114.606987      -34.906189
 H         -42.702305     -110.830368      -32.898567
 H         -40.961514     -111.294289      -33.276974
 H         -42.364216     -113.211060      -32.791039
 H         -43.532108     -112.626625      -33.930656
