20
 generated by VMD
 C         -27.919333      -81.760254      -26.612083
 N         -28.167980      -82.230354      -27.627739
 H         -30.390488      -84.082306      -26.287949
 H         -27.501692      -81.303604      -25.690660
 C         -31.101715      -84.388855      -25.464956
 C         -30.756872      -84.243340      -23.992119
 C         -31.772394      -85.699432      -25.845329
 C         -31.694027      -84.823860      -23.021368
 C         -32.870338      -86.134804      -24.833601
 C         -32.352703      -86.137344      -23.403913
 H         -30.715958      -83.096779      -24.000729
 H         -29.748072      -84.590050      -23.822453
 H         -32.286980      -85.506752      -26.835995
 H         -31.056021      -86.561569      -26.106251
 H         -32.677559      -84.127022      -23.131912
 H         -31.349260      -84.873795      -22.010693
 H         -33.268406      -87.053642      -25.184095
 H         -33.711079      -85.337746      -24.865017
 H         -33.200382      -86.329468      -22.772512
 H         -31.671726      -86.952354      -23.324663
