20
 generated by VMD
 C         -50.019608     -128.579849      -43.345757
 N         -50.678936     -129.179184      -44.056435
 H         -48.757370     -128.438095      -40.018200
 H         -49.244911     -128.042572      -42.839848
 C         -47.724281     -128.189392      -40.263561
 C         -46.795837     -129.255035      -39.971340
 C         -47.363594     -127.006317      -40.977280
 C         -45.778149     -129.534790      -41.071152
 C         -46.365807     -127.198883      -42.074963
 C         -45.234089     -128.179642      -41.690235
 H         -47.290272     -130.293945      -39.896088
 H         -46.328983     -128.966843      -39.047153
 H         -48.365387     -126.479546      -41.329239
 H         -46.954308     -126.281586      -40.324860
 H         -46.245117     -130.007355      -41.925774
 H         -44.861935     -129.983322      -40.616589
 H         -45.882030     -126.343208      -42.395142
 H         -46.918964     -127.682724      -42.822521
 H         -44.669235     -128.416092      -42.634232
 H         -44.409096     -127.883423      -40.989872
