20
 generated by VMD
 C         -23.051527      -55.199509      -15.030138
 N         -22.737104      -55.017513      -16.148918
 H         -19.782101      -54.356289      -15.537567
 H         -23.568981      -55.389511      -14.206428
 C         -19.505236      -55.163010      -14.819164
 C         -18.790714      -55.055229      -13.452011
 C         -19.494909      -56.575424      -15.387445
 C         -19.411972      -56.181061      -12.568712
 C         -19.225008      -57.817577      -14.557761
 C         -18.965290      -57.506031      -13.106154
 H         -18.889473      -54.035419      -13.066288
 H         -17.784166      -55.359177      -13.502127
 H         -20.483707      -56.665009      -15.979860
 H         -18.706244      -56.594074      -16.095921
 H         -20.507164      -56.097343      -12.611294
 H         -19.211411      -56.159275      -11.500159
 H         -18.390259      -58.351376      -15.013138
 H         -20.112373      -58.514549      -14.562488
 H         -19.401344      -58.332020      -12.492125
 H         -17.908316      -57.713669      -12.966147
