20
 generated by VMD
 C         -13.015973      -28.568298       -5.231122
 N         -12.839836      -27.531590       -5.585814
 H         -11.334244      -30.887514       -3.115576
 H         -11.198209      -29.490831       -4.063980
 C         -10.539053      -30.213123       -3.579258
 C          -9.704905      -30.935848       -4.717053
 C          -9.607137      -29.652159       -2.490964
 C          -8.697927      -29.972546       -5.338826
 C          -8.509075      -28.644316       -3.120370
 C          -7.789768      -29.347860       -4.315847
 H         -10.297471      -31.429249       -5.465313
 H          -9.133454      -31.790197       -4.200385
 H         -10.121588      -29.173359       -1.632593
 H          -9.026472      -30.454119       -2.079287
 H          -9.192492      -29.100388       -5.854609
 H          -8.156067      -30.478106       -6.173806
 H          -7.789783      -28.359999       -2.372787
 H          -9.060875      -27.728823       -3.413030
 H          -6.970186      -28.838566       -4.875625
 H          -7.205252      -30.130674       -3.876487
