20
 generated by VMD
 C         -31.812090      -76.063881      -24.213409
 N         -31.346727      -76.478271      -25.202389
 H         -29.569242      -77.875862      -22.555122
 H         -32.558617      -75.814316      -23.585472
 C         -28.568369      -77.875175      -22.228680
 C         -27.677776      -78.165253      -23.311794
 C         -28.281931      -78.371529      -20.787374
 C         -26.220247      -77.932381      -22.844933
 C         -26.876190      -78.112831      -20.347658
 C         -25.823320      -78.474518      -21.407021
 H         -28.005692      -77.672890      -24.249340
 H         -27.803717      -79.174728      -23.650816
 H         -29.155830      -77.924217      -20.229942
 H         -28.393120      -79.449097      -20.795706
 H         -26.031086      -76.840752      -22.742609
 H         -25.520407      -78.184937      -23.680361
 H         -26.662409      -78.537895      -19.352697
 H         -26.658089      -76.935333      -20.329424
 H         -24.815647      -77.998306      -21.203506
 H         -25.768179      -79.547295      -21.483345
