20
 generated by VMD
 C         -69.481918     -185.069901      -66.657433
 N         -69.163185     -184.949295      -67.759468
 H         -69.227386     -183.370514      -63.349667
 H         -69.651466     -185.165955      -65.569046
 C         -69.177200     -183.338150      -62.246437
 C         -69.762451     -184.394424      -61.383873
 C         -68.185631     -182.522964      -61.521103
 C         -68.540199     -185.271179      -60.963001
 C         -66.948555     -183.330292      -61.340103
 C         -67.301163     -184.511475      -60.428192
 H         -70.440758     -184.968933      -62.066410
 H         -70.201492     -184.089859      -60.461964
 H         -68.075775     -181.553085      -62.078175
 H         -68.477501     -182.294495      -60.428539
 H         -68.149139     -185.740051      -61.826473
 H         -68.929634     -186.016098      -60.281830
 H         -66.202682     -182.675888      -60.967255
 H         -66.615898     -183.855560      -62.289337
 H         -66.323944     -185.231110      -60.459927
 H         -67.364517     -184.152679      -59.420048
