20
 generated by VMD
 C         -28.106129      -84.626030      -26.069374
 N         -28.326973      -84.305435      -27.164577
 H         -31.575333      -84.546677      -26.233612
 H         -27.894138      -84.968781      -25.095362
 C         -31.490553      -85.600258      -25.813007
 C         -31.667921      -85.713196      -24.398439
 C         -31.895369      -86.559647      -26.713953
 C         -33.015324      -86.278755      -24.032423
 C         -33.281036      -87.123985      -26.361084
 C         -33.430134      -87.537216      -24.852333
 H         -31.315784      -84.713852      -24.005310
 H         -30.916500      -86.444633      -24.166496
 H         -31.850609      -86.279976      -27.781116
 H         -31.204304      -87.444435      -26.619999
 H         -33.781895      -85.560120      -23.933443
 H         -33.039783      -86.577431      -22.937777
 H         -33.596382      -88.001038      -26.987614
 H         -33.944683      -86.342636      -26.635986
 H         -34.398407      -87.826035      -24.518768
 H         -32.786961      -88.347267      -24.709316
