20
 generated by VMD
 C         -28.261753      -84.661995      -26.170284
 N         -28.209518      -84.023361      -27.131496
 H         -31.283718      -84.520660      -26.216988
 H         -28.444706      -85.144508      -25.250164
 C         -31.568748      -85.521225      -25.762878
 C         -31.525238      -85.751686      -24.388714
 C         -31.914511      -86.540741      -26.702885
 C         -32.926613      -86.130859      -23.941938
 C         -33.242222      -87.218872      -26.324791
 C         -33.409538      -87.366211      -24.795481
 H         -31.080877      -84.872002      -23.768663
 H         -30.909275      -86.586342      -24.071726
 H         -31.855301      -86.182297      -27.721825
 H         -31.038858      -87.240105      -26.512526
 H         -33.612484      -85.332932      -24.196072
 H         -32.939857      -86.514008      -22.902056
 H         -33.256077      -88.112923      -26.919968
 H         -33.970322      -86.507912      -26.734287
 H         -34.414021      -87.490906      -24.374672
 H         -32.862263      -88.221725      -24.528774
