20
 generated by VMD
 C          -9.284379      -24.365345        1.416830
 N          -9.559907      -25.294439        1.949496
 H          -7.371043      -23.214661       -0.719493
 H          -8.582444      -22.633448       -1.592439
 C          -7.558865      -22.984003       -1.744738
 C          -7.514306      -24.328222       -2.535518
 C          -6.672767      -21.927988       -2.305533
 C          -7.852252      -24.025011       -4.055100
 C          -7.020277      -21.599260       -3.798805
 C          -6.968988      -22.891361       -4.645695
 H          -8.190739      -24.968903       -2.025940
 H          -6.452602      -24.772825       -2.517676
 H          -6.762691      -20.974669       -1.782021
 H          -5.634189      -22.297823       -2.305182
 H          -8.899098      -23.730261       -4.172132
 H          -7.640822      -24.940840       -4.558958
 H          -6.317901      -20.876707       -4.230905
 H          -8.008551      -21.186407       -3.758911
 H          -7.389956      -22.723043       -5.681762
 H          -5.903013      -23.171453       -4.719251
