20
 generated by VMD
 C         -40.131577     -100.672180      -31.806374
 N         -40.882950     -100.309761      -31.041595
 H         -37.633537     -103.591942      -31.808350
 H         -39.351135     -101.182518      -32.477100
 C         -36.998589     -102.737823      -31.744253
 C         -35.833797     -102.316467      -32.673248
 C         -36.767796     -102.427620      -30.306889
 C         -35.549538     -100.735207      -32.566616
 C         -36.565575     -100.886894      -30.283190
 C         -35.296413     -100.291908      -31.155876
 H         -36.096760     -102.551514      -33.710075
 H         -34.934441     -102.834702      -32.423649
 H         -37.581482     -102.722534      -29.692930
 H         -35.913639     -102.981956      -29.872099
 H         -36.379562     -100.317711      -33.049877
 H         -34.742741     -100.548691      -33.207840
 H         -36.446873     -100.630043      -29.164352
 H         -37.514999     -100.414162      -30.648413
 H         -35.302799      -99.178940      -31.042797
 H         -34.394115     -100.716446      -30.755720
