20
 generated by VMD
 C         -76.881615     -203.393661      -66.727280
 N         -77.685509     -204.017715      -66.136147
 H         -75.472694     -200.656570      -68.411041
 H         -76.281456     -202.859055      -67.486450
 C         -74.699638     -200.013901      -68.805023
 C         -74.805199     -198.564453      -68.679817
 C         -73.833405     -200.676437      -69.863678
 C         -73.500702     -197.843262      -69.034271
 C         -72.974632     -199.685440      -70.749680
 C         -72.894012     -198.140823      -70.324142
 H         -75.114288     -198.174789      -67.736893
 H         -75.567688     -198.279373      -69.410889
 H         -73.115540     -201.390152      -69.319565
 H         -74.267456     -201.466370      -70.433434
 H         -72.705513     -197.955338      -68.256065
 H         -73.785484     -196.764420      -69.037361
 H         -73.321800     -199.701431      -71.802322
 H         -71.940926     -200.075073      -70.767662
 H         -71.858131     -197.707184      -70.210686
 H         -73.338638     -197.497864      -71.196297
