20
 generated by VMD
 C         -29.234983      -74.500359      -19.535900
 N         -30.316166      -74.389496      -19.975132
 H         -25.682465      -73.352989      -18.731073
 H         -28.298819      -75.025162      -19.055658
 C         -25.679468      -73.310707      -19.813404
 C         -25.371027      -74.501404      -20.668446
 C         -25.588625      -71.983269      -20.500711
 C         -25.975132      -74.323631      -22.148827
 C         -26.105421      -71.941299      -21.949099
 C         -25.599344      -73.059265      -22.798698
 H         -25.786407      -75.462143      -20.213036
 H         -24.294380      -74.593887      -20.782660
 H         -26.089468      -71.192245      -19.965471
 H         -24.455801      -71.714386      -20.551828
 H         -27.067677      -74.222748      -22.233810
 H         -25.785957      -75.248642      -22.738520
 H         -25.942450      -70.956833      -22.354469
 H         -27.199770      -71.908669      -21.853880
 H         -26.060204      -72.878647      -23.736692
 H         -24.490833      -73.081352      -22.899771
