20
 generated by VMD
 C         -30.126982      -79.993019      -26.274313
 N         -29.294647      -79.801590      -27.051405
 H         -28.659088      -82.473709      -25.527868
 H         -30.748968      -80.285439      -25.375334
 C         -29.291161      -82.786011      -24.628614
 C         -29.059025      -82.187119      -23.177538
 C         -29.942892      -84.209816      -24.662008
 C         -30.379950      -82.382614      -22.365162
 C         -31.356947      -84.148010      -24.000105
 C         -31.123737      -83.664551      -22.604937
 H         -28.822929      -81.112190      -23.365578
 H         -28.241524      -82.772774      -22.797892
 H         -30.095165      -84.403351      -25.776039
 H         -29.450867      -84.996452      -24.147980
 H         -31.028955      -81.583092      -22.600447
 H         -30.174562      -82.377853      -21.235622
 H         -31.882895      -85.147133      -23.972147
 H         -31.939768      -83.430923      -24.475855
 H         -32.159969      -83.531845      -22.108812
 H         -30.505377      -84.287308      -21.955212
