20
 generated by VMD
 C         -38.754608     -109.677193      -36.136341
 N         -37.782047     -109.075462      -36.175980
 H         -41.974861     -110.227318      -36.867306
 H         -39.608807     -110.407005      -36.244698
 C         -42.049950     -110.823158      -35.983559
 C         -41.764244     -112.233826      -36.019974
 C         -42.431866     -110.193245      -34.745754
 C         -40.870640     -112.768509      -34.913750
 C         -41.845512     -110.790627      -33.454166
 C         -41.442772     -112.279854      -33.584503
 H         -41.338310     -112.430626      -36.992485
 H         -42.752708     -112.800110      -36.097115
 H         -42.235279     -109.068939      -34.891182
 H         -43.511116     -110.420547      -34.772236
 H         -39.844208     -112.569176      -34.983887
 H         -41.082081     -113.879097      -34.774403
 H         -42.687180     -110.757690      -32.651154
 H         -40.933281     -110.177681      -33.079956
 H         -40.706116     -112.667442      -32.863533
 H         -42.322517     -112.934753      -33.469208
