20
 generated by VMD
 C         -50.789436     -129.150101      -44.765957
 N         -50.945549     -130.226196      -44.258606
 H         -49.103317     -128.066849      -41.428810
 H         -50.561600     -128.161575      -45.240894
 C         -48.132488     -128.604645      -41.280575
 C         -47.863483     -130.026733      -40.986176
 C         -47.110935     -127.606682      -40.816063
 C         -46.429161     -130.462753      -41.442097
 C         -45.685749     -127.882156      -41.353699
 C         -45.371586     -129.386978      -41.031925
 H         -48.543598     -130.861542      -41.478870
 H         -47.899475     -130.173325      -39.931843
 H         -47.401985     -126.678139      -41.138119
 H         -47.117367     -127.626144      -39.643131
 H         -46.425827     -130.464050      -42.564693
 H         -46.284607     -131.385162      -40.857319
 H         -44.884754     -127.319038      -40.970432
 H         -45.601681     -127.897362      -42.384056
 H         -44.399513     -129.628311      -41.460663
 H         -45.162907     -129.521667      -39.912701
