20
 generated by VMD
 C         -21.957376      -55.309307      -17.379629
 N         -22.189682      -55.484074      -18.449848
 H         -22.171249      -57.181934      -14.410697
 H         -21.915842      -54.722931      -16.448986
 C         -21.200304      -57.616772      -14.210838
 C         -20.952417      -58.300861      -12.809925
 C         -20.072819      -57.892212      -15.271426
 C         -20.768129      -59.872063      -13.062312
 C         -20.043072      -59.404751      -15.551175
 C         -19.834919      -60.199516      -14.259065
 H         -21.863131      -58.191444      -12.188986
 H         -20.152687      -57.882526      -12.245522
 H         -20.271820      -57.457821      -16.295052
 H         -19.136873      -57.397820      -14.900127
 H         -21.813255      -60.201954      -13.337584
 H         -20.523844      -60.486935      -12.188111
 H         -19.160946      -59.553802      -16.225056
 H         -20.927633      -59.758419      -16.080202
 H         -20.032158      -61.260025      -14.498238
 H         -18.819622      -60.066399      -14.010087
