20
 generated by VMD
 C         -79.420464     -208.963058      -76.651604
 N         -79.028816     -210.036011      -76.467201
 H         -77.909737     -209.343109      -73.079437
 H         -79.793442     -207.961731      -76.953033
 C         -77.959511     -210.326385      -72.581436
 C         -77.127655     -210.669052      -71.454559
 C         -79.019829     -211.186142      -72.923325
 C         -77.802017     -211.508774      -70.345505
 C         -79.857216     -211.751602      -71.733490
 C         -78.865997     -212.441803      -70.756454
 H         -76.768768     -209.731216      -71.112801
 H         -76.235100     -211.178299      -71.743607
 H         -79.771576     -210.577118      -73.527000
 H         -78.748909     -212.077179      -73.540604
 H         -78.223892     -210.783844      -69.661171
 H         -77.057098     -212.070541      -69.785240
 H         -80.626724     -212.456192      -71.998711
 H         -80.549911     -210.976166      -71.130470
 H         -79.462090     -212.543686      -69.842957
 H         -78.455032     -213.420837      -70.960365
