20
 generated by VMD
 C         -61.009041     -156.233017      -54.894604
 N         -60.254719     -155.612473      -55.466068
 H         -59.669617     -156.536728      -52.079784
 H         -61.795330     -156.668472      -54.277122
 C         -58.655437     -156.638901      -51.685276
 C         -57.943535     -155.344193      -51.537769
 C         -57.860584     -157.901947      -52.053658
 C         -56.770245     -155.582962      -50.746052
 C         -56.600151     -158.049484      -51.100128
 C         -55.840836     -156.745895      -51.065800
 H         -58.622116     -154.605591      -51.067047
 H         -57.743736     -154.946991      -52.532410
 H         -58.560825     -158.817902      -51.859833
 H         -57.629364     -157.788208      -53.139084
 H         -57.125088     -155.728638      -49.774448
 H         -56.390892     -154.573074      -50.670422
 H         -56.035065     -158.868484      -51.618248
 H         -56.713612     -158.388779      -50.041454
 H         -55.110050     -156.759583      -50.329720
 H         -55.386543     -156.687988      -52.145439
