20
 generated by VMD
 C         -27.523405      -86.657104      -26.596756
 N         -28.400623      -85.941681      -26.653996
 H         -30.897261      -86.254456      -25.217289
 H         -26.771790      -87.456589      -26.634983
 C         -31.901363      -86.609177      -25.561775
 C         -32.786591      -87.040161      -24.426901
 C         -32.039394      -87.226387      -26.995361
 C         -34.158508      -87.462357      -24.820923
 C         -33.486927      -87.493256      -27.348030
 C         -34.293316      -88.227890      -26.253012
 H         -32.759697      -86.141129      -23.742834
 H         -32.285748      -87.762405      -23.867210
 H         -31.532022      -86.557602      -27.732929
 H         -31.471865      -88.192955      -27.070929
 H         -34.799408      -86.632446      -25.085335
 H         -34.589775      -88.245903      -24.093637
 H         -33.435623      -88.039650      -28.234823
 H         -33.995968      -86.498512      -27.507504
 H         -35.321323      -88.315903      -26.652870
 H         -34.072109      -89.213623      -26.018744
