20
 generated by VMD
 C         -38.348515     -109.698380      -36.481060
 N         -37.620220     -109.028198      -35.854393
 H         -41.180702     -111.335556      -37.119370
 H         -39.088104     -110.316841      -37.067776
 C         -41.485260     -111.676651      -36.144390
 C         -42.005039     -113.081329      -36.348110
 C         -42.006062     -110.721779      -35.129089
 C         -42.213062     -113.773895      -35.034569
 C         -42.007607     -111.465141      -33.771339
 C         -42.828728     -112.795486      -33.846905
 H         -41.452335     -113.750565      -37.046638
 H         -42.981697     -112.949112      -36.953197
 H         -41.218353     -109.936813      -35.186600
 H         -43.016327     -110.343513      -35.395508
 H         -41.239452     -114.194206      -34.578125
 H         -42.840313     -114.579391      -35.159786
 H         -42.561314     -110.822548      -33.031212
 H         -40.920063     -111.605331      -33.404758
 H         -42.750153     -113.431328      -32.882591
 H         -43.914665     -112.504539      -34.050858
