20
 generated by VMD
 C         -62.793251     -174.726898      -54.614193
 N         -63.205421     -174.225479      -55.552082
 H         -63.290779     -173.070435      -58.086697
 H         -62.470455     -175.099991      -53.653698
 C         -63.722054     -172.137924      -58.450157
 C         -63.839806     -170.909088      -57.521996
 C         -64.429871     -172.090988      -59.846199
 C         -63.822842     -169.581818      -58.266762
 C         -64.238373     -170.712173      -60.484974
 C         -64.654083     -169.664413      -59.479427
 H         -62.933880     -170.886932      -56.779026
 H         -64.738686     -171.066010      -56.954647
 H         -63.940613     -172.897141      -60.403202
 H         -65.536209     -172.393097      -59.585491
 H         -62.801582     -169.434387      -58.639057
 H         -64.132591     -168.713623      -57.581833
 H         -64.783607     -170.550980      -61.400814
 H         -63.239738     -170.498886      -60.813591
 H         -64.421600     -168.763824      -59.979969
 H         -65.751350     -169.707886      -59.270336
