20
 generated by VMD
 C          -3.366995      -19.658659        3.357326
 N          -3.710144      -18.622356        3.113340
 H          -5.407563      -20.384863       -0.004349
 H          -6.347352      -21.385105       -1.109220
 C          -6.214612      -20.338724       -0.785747
 C          -5.691705      -19.442484       -1.914745
 C          -7.440576      -19.659061       -0.304480
 C          -6.709817      -19.258114       -3.106418
 C          -8.488214      -19.524158       -1.360661
 C          -8.062868      -18.763453       -2.549932
 H          -4.795748      -19.812832       -2.369941
 H          -5.382748      -18.433666       -1.475292
 H          -7.868783      -20.131844        0.544559
 H          -7.209129      -18.739456        0.174575
 H          -6.908293      -20.179585       -3.633025
 H          -6.308111      -18.649406       -3.868882
 H          -9.360572      -19.125351       -0.898895
 H          -8.748144      -20.546259       -1.629263
 H          -8.800355      -18.773893       -3.383486
 H          -7.945073      -17.705175       -2.310686
