20
 generated by VMD
 C         -66.968231     -177.836700      -57.082474
 N         -67.835320     -178.576233      -56.828671
 H         -64.069778     -175.988617      -58.905033
 H         -66.183891     -177.139389      -57.449055
 C         -64.158508     -175.095932      -59.503704
 C         -65.487358     -174.420822      -59.450100
 C         -63.183449     -174.600159      -60.528011
 C         -65.391289     -172.898010      -59.400024
 C         -62.975315     -173.145309      -60.421169
 C         -64.280823     -172.308777      -60.310257
 H         -66.198959     -174.797775      -58.672596
 H         -66.006248     -174.728409      -60.396629
 H         -62.177219     -175.028717      -60.574490
 H         -63.471676     -174.598633      -61.620869
 H         -64.947952     -172.635208      -58.390808
 H         -66.374893     -172.331696      -59.368382
 H         -62.229645     -172.900894      -61.158035
 H         -62.405125     -172.932693      -59.485050
 H         -63.955898     -171.277542      -59.984081
 H         -64.531883     -172.188141      -61.349319
