20
 generated by VMD
 C         -50.867649     -130.823654      -46.394234
 N         -50.232273     -130.889938      -47.420631
 H         -48.102551     -131.937958      -44.308109
 H         -50.998432     -130.982437      -45.280945
 C         -48.446507     -132.334915      -43.314800
 C         -49.054790     -133.705215      -43.082973
 C         -48.389023     -131.388306      -42.160484
 C         -48.488327     -134.357620      -41.909760
 C         -47.864803     -132.035110      -40.881992
 C         -48.531918     -133.397614      -40.629601
 H         -48.747295     -134.375717      -43.956657
 H         -50.085495     -133.696396      -42.881504
 H         -47.750912     -130.595581      -42.554428
 H         -49.453468     -131.054672      -42.000187
 H         -47.446552     -134.612061      -42.034122
 H         -48.985256     -135.237625      -41.575806
 H         -47.785275     -131.387054      -39.989986
 H         -46.818565     -132.145798      -41.023384
 H         -48.040165     -133.806915      -39.771534
 H         -49.645138     -133.104889      -40.591045
