20
 generated by VMD
 C         -42.096058     -101.598663      -33.458481
 N         -40.984001     -101.760651      -33.864204
 H         -39.106861     -103.678230      -32.558052
 H         -43.041759     -101.643013      -33.000210
 C         -38.033634     -103.754044      -32.242760
 C         -36.806118     -103.478539      -33.038357
 C         -37.800732     -104.167007      -30.822155
 C         -35.658318     -102.772537      -32.348988
 C         -36.614578     -103.404373      -30.201372
 C         -35.345505     -103.421875      -31.012779
 H         -37.087475     -102.934807      -33.907970
 H         -36.287586     -104.355843      -33.445240
 H         -38.603657     -104.001976      -30.162237
 H         -37.678226     -105.278664      -30.673603
 H         -35.897762     -101.690292      -32.447990
 H         -34.692009     -102.952187      -33.008625
 H         -36.300159     -103.652016      -29.123220
 H         -37.026878     -102.450478      -30.146334
 H         -34.637787     -102.687920      -30.453978
 H         -34.799240     -104.340088      -31.167259
