20
 generated by VMD
 C         -78.262367     -204.136292      -69.207458
 N         -79.095154     -203.967957      -69.970291
 H         -75.959435     -202.591202      -67.721436
 H         -77.357643     -204.335114      -68.653778
 C         -75.180267     -202.143005      -68.423241
 C         -75.377617     -200.679855      -68.990166
 C         -74.005859     -202.874588      -68.925629
 C         -74.782181     -200.532471      -70.415291
 C         -72.978615     -202.103241      -69.651588
 C         -73.420738     -201.105927      -70.701324
 H         -74.912575     -199.943466      -68.321037
 H         -76.445183     -200.434769      -68.985374
 H         -73.547302     -203.462479      -68.055565
 H         -74.391609     -203.596970      -69.599541
 H         -74.804062     -199.435699      -70.642136
 H         -75.483940     -201.010620      -71.094582
 H         -72.260216     -202.763321      -70.183701
 H         -72.465355     -201.571899      -68.821899
 H         -72.689377     -200.336578      -70.776527
 H         -73.471985     -201.589981      -71.729149
