20
 generated by VMD
 C          -1.229826      -12.846078        1.171221
 N          -0.604558      -12.841677        0.209275
 H          -4.258442      -12.972539        1.532287
 H          -5.785356      -13.280273        0.674375
 C          -4.972389      -13.760257        1.285957
 C          -5.679228      -14.074117        2.587208
 C          -4.379749      -14.957797        0.567616
 C          -6.621697      -15.266591        2.512057
 C          -5.508610      -16.077429        0.363510
 C          -6.003281      -16.466482        1.760429
 H          -6.379070      -13.278581        2.851650
 H          -4.898411      -14.344232        3.364082
 H          -3.956963      -14.779281       -0.473290
 H          -3.550177      -15.467455        1.168827
 H          -7.508839      -14.989951        1.938063
 H          -6.918475      -15.602201        3.494250
 H          -5.074339      -16.982559       -0.065609
 H          -6.293118      -15.745479       -0.286942
 H          -6.773079      -17.295029        1.780639
 H          -5.128107      -16.752420        2.402239
