20
 generated by VMD
 C         -11.392021      -34.054394       -8.529756
 N         -10.696013      -34.890514       -8.863096
 H         -11.824317      -37.395782       -7.698225
 H         -12.819339      -37.099133       -6.393408
 C         -12.709398      -37.786312       -7.227789
 C         -12.510345      -39.215706       -6.718882
 C         -13.970073      -37.620461       -8.022306
 C         -13.758247      -39.668922       -5.972828
 C         -15.219984      -38.241261       -7.409371
 C         -14.923268      -39.630051       -6.829855
 H         -11.651383      -39.171490       -6.075018
 H         -12.180676      -39.941376       -7.451740
 H         -14.248865      -36.579563       -8.197244
 H         -13.872393      -37.944885       -9.059914
 H         -13.856298      -39.242252       -5.007904
 H         -13.647373      -40.751144       -5.688081
 H         -15.983708      -38.384789       -8.176983
 H         -15.667591      -37.549320       -6.616533
 H         -15.780895      -40.006020       -6.270654
 H         -14.738383      -40.381363       -7.661986
