20
 generated by VMD
 C         -70.328087     -196.666946      -65.406769
 N         -69.406258     -196.957214      -66.059097
 H         -73.880920     -195.624756      -64.831802
 H         -71.183846     -196.410522      -64.746964
 C         -73.704498     -195.154953      -65.840019
 C         -73.084038     -193.874573      -65.981834
 C         -74.509575     -195.650757      -67.097984
 C         -72.393127     -193.674942      -67.378647
 C         -74.205727     -194.936523      -68.516823
 C         -73.483765     -193.634460      -68.431793
 H         -72.445190     -193.706543      -65.081001
 H         -73.812660     -192.978073      -65.723442
 H         -74.168442     -196.728104      -67.118828
 H         -75.521545     -195.528900      -66.717720
 H         -71.587013     -194.468414      -67.589691
 H         -71.804543     -192.722000      -67.411575
 H         -75.193901     -194.819626      -69.010551
 H         -73.648499     -195.585434      -69.215500
 H         -72.999405     -193.321976      -69.418472
 H         -74.128609     -192.869217      -68.176727
