20
 generated by VMD
 C         -23.481287      -53.083450      -12.952205
 N         -23.122704      -52.605881      -13.910301
 H         -20.452154      -54.929520      -14.416942
 H         -23.754827      -53.234249      -11.898603
 C         -19.387209      -54.718594      -14.101605
 C         -18.919960      -53.255451      -14.112685
 C         -18.460358      -55.904213      -13.947575
 C         -17.782000      -53.014496      -13.053041
 C         -17.171268      -55.469944      -13.239669
 C         -16.734787      -54.021233      -13.413161
 H         -19.745485      -52.657711      -13.826352
 H         -18.543022      -53.026249      -15.101068
 H         -19.051306      -56.677429      -13.435849
 H         -18.237278      -56.252502      -14.920194
 H         -18.145620      -53.071903      -12.027826
 H         -17.261127      -52.053883      -13.200340
 H         -16.405396      -56.222313      -13.561934
 H         -17.252960      -55.615707      -12.180666
 H         -15.792552      -53.874310      -12.773762
 H         -16.531837      -53.788441      -14.487519
