20
 generated by VMD
 C         -68.854660     -184.618866      -66.032166
 N         -69.567390     -185.470413      -66.400894
 H         -69.611732     -183.137177      -63.649860
 H         -68.238678     -183.772873      -65.656700
 C         -69.030945     -183.718323      -62.949017
 C         -69.821159     -184.921005      -62.460747
 C         -67.967491     -183.027313      -62.166805
 C         -69.010323     -185.869003      -61.548412
 C         -67.227905     -184.037628      -61.355598
 C         -68.186401     -184.956818      -60.535591
 H         -70.376366     -185.461609      -63.315445
 H         -70.582001     -184.406158      -61.852028
 H         -67.305656     -182.557602      -62.830978
 H         -68.376366     -182.185059      -61.559601
 H         -68.420906     -186.513077      -62.244049
 H         -69.569771     -186.543686      -60.872112
 H         -66.669289     -183.613693      -60.556458
 H         -66.571228     -184.545792      -62.048126
 H         -67.475204     -185.573837      -59.926941
 H         -68.783089     -184.379608      -59.962032
