20
 generated by VMD
 C         -63.193699     -172.797302      -55.346001
 N         -62.744392     -173.840103      -54.977085
 H         -61.787373     -171.744858      -58.080376
 H         -63.654987     -171.915298      -55.757717
 C         -62.570633     -171.016953      -58.329151
 C         -62.372597     -169.541000      -58.114162
 C         -63.707024     -171.556000      -59.215057
 C         -63.711155     -168.754349      -58.193863
 C         -64.853233     -170.591354      -59.285755
 C         -65.018517     -169.483078      -58.277119
 H         -61.641281     -169.138077      -58.987072
 H         -61.908855     -169.378448      -57.210579
 H         -63.314701     -171.538620      -60.195759
 H         -63.911041     -172.518951      -58.664898
 H         -63.680367     -168.004303      -59.031635
 H         -63.736103     -168.117844      -57.292076
 H         -65.785675     -171.194504      -58.985352
 H         -65.142960     -170.115158      -60.276680
 H         -65.817505     -168.874084      -58.604103
 H         -65.313225     -169.873138      -57.293262
