20
 generated by VMD
 C         -78.678108     -210.131897      -76.495750
 N         -77.619469     -210.326645      -76.957344
 H         -79.575813     -211.995773      -74.605515
 H         -79.566757     -209.867935      -76.069839
 C         -79.516624     -212.315674      -73.549599
 C         -78.213081     -212.413589      -72.878403
 C         -80.786690     -213.098328      -73.127243
 C         -78.358177     -212.710220      -71.392799
 C         -80.808861     -213.477875      -71.620934
 C         -79.435036     -213.849792      -71.195404
 H         -77.575470     -211.517014      -72.998657
 H         -77.609604     -213.145615      -73.370834
 H         -81.699043     -212.540405      -73.328125
 H         -80.730942     -214.094391      -73.658730
 H         -78.603882     -211.786758      -70.800499
 H         -77.320839     -212.873993      -71.079933
 H         -81.403961     -214.338303      -71.685318
 H         -81.542938     -212.799240      -71.021935
 H         -79.461662     -214.219986      -70.222092
 H         -79.253563     -214.697495      -71.786858
