20
 generated by VMD
 C         -29.777847      -79.803993      -26.419220
 N         -30.237238      -78.900810      -25.867750
 H         -28.612839      -83.046379      -25.697912
 H         -29.504375      -80.626175      -27.190723
 C         -29.193104      -82.914673      -24.743834
 C         -28.764437      -81.939087      -23.687262
 C         -29.928398      -84.174706      -24.338219
 C         -29.849392      -81.630783      -22.709709
 C         -31.127117      -83.780823      -23.396669
 C         -30.580238      -82.812180      -22.317884
 H         -28.326311      -81.011452      -24.177582
 H         -27.853859      -82.415100      -23.275537
 H         -30.302650      -84.659332      -25.193546
 H         -29.241589      -84.926178      -23.900248
 H         -30.542915      -80.870300      -23.169294
 H         -29.427763      -81.323990      -21.659048
 H         -31.467167      -84.649963      -22.913300
 H         -31.896461      -83.382248      -24.056534
 H         -31.393375      -82.438560      -21.636353
 H         -30.061964      -83.428665      -21.592436
