20
 generated by VMD
 C         -27.970308      -82.535133      -27.114168
 N         -27.223909      -83.329628      -26.781071
 H         -31.254553      -84.143784      -26.380810
 H         -28.709909      -81.730621      -27.310793
 C         -31.705250      -84.881073      -25.826572
 C         -31.388371      -84.731392      -24.328114
 C         -32.291828      -86.228973      -26.289751
 C         -32.366730      -85.529724      -23.476721
 C         -33.194393      -86.890404      -25.258457
 C         -32.572701      -86.947975      -23.900124
 H         -31.151026      -83.616318      -24.159101
 H         -30.476665      -85.366013      -24.202665
 H         -32.748955      -86.262306      -27.312374
 H         -31.494190      -86.961388      -26.267897
 H         -33.360058      -85.124573      -23.376644
 H         -32.056099      -85.414787      -22.411970
 H         -33.469093      -87.930702      -25.509361
 H         -34.128799      -86.357559      -25.114395
 H         -33.427010      -87.223991      -23.156317
 H         -31.696045      -87.585716      -23.865273
