20
 generated by VMD
 C         -56.638092     -149.970337      -47.797569
 N         -57.601471     -150.476349      -48.256573
 H         -53.458523     -148.706802      -47.413525
 H         -55.697044     -149.462021      -47.411507
 C         -53.967102     -148.318451      -48.349239
 C         -53.235630     -148.973663      -49.633572
 C         -54.807102     -147.082184      -48.500927
 C         -54.168560     -148.962463      -50.821156
 C         -55.538212     -147.043015      -49.785683
 C         -54.799068     -147.672333      -51.000889
 H         -53.046043     -149.989548      -49.202011
 H         -52.332855     -148.387253      -49.938190
 H         -55.551552     -146.951187      -47.709801
 H         -54.107098     -146.116226      -48.431950
 H         -54.974400     -149.702911      -50.779366
 H         -53.531765     -149.322021      -51.658035
 H         -55.807121     -146.041107      -50.004185
 H         -56.528259     -147.721741      -49.745190
 H         -55.585320     -147.803665      -51.737553
 H         -54.107727     -146.873001      -51.441467
