20
 generated by VMD
 C         -30.284393      -92.669754      -25.784157
 N         -29.576584      -92.402969      -24.895023
 H         -32.607597      -89.667160      -26.621611
 H         -30.862703      -92.892365      -26.756319
 C         -33.246449      -90.097404      -27.323851
 C         -34.036407      -91.303246      -27.059282
 C         -33.476505      -89.294670      -28.533964
 C         -35.375935      -91.269173      -27.843281
 C         -34.799252      -89.406464      -29.221466
 C         -35.275806      -90.854317      -29.287615
 H         -34.319691      -91.320259      -25.984015
 H         -33.606415      -92.289421      -27.456978
 H         -33.234615      -88.175262      -28.323530
 H         -32.659801      -89.737198      -29.233753
 H         -35.950130      -90.553474      -27.162710
 H         -35.825020      -92.237083      -27.789461
 H         -34.739922      -88.819290      -30.114653
 H         -35.481907      -88.838051      -28.556087
 H         -36.135513      -91.024818      -29.953779
 H         -34.429356      -91.325516      -29.752192
