20
 generated by VMD
 C         -59.403908     -168.592773      -55.768120
 N         -58.984055     -168.790024      -54.677368
 H         -62.662392     -169.691589      -55.998596
 H         -59.706230     -168.395950      -56.795700
 C         -62.856613     -168.666611      -56.416298
 C         -62.747055     -168.536545      -57.901329
 C         -63.040661     -167.539459      -55.498798
 C         -63.800713     -167.679718      -58.405617
 C         -64.067749     -166.584290      -56.076176
 C         -63.830154     -166.270721      -57.653587
 H         -62.730434     -169.637604      -58.418377
 H         -61.834198     -168.140411      -58.197964
 H         -63.255619     -167.995834      -54.463306
 H         -61.999432     -167.166855      -55.526958
 H         -64.767418     -168.219772      -58.284744
 H         -63.769501     -167.500443      -59.469894
 H         -64.366989     -165.743362      -55.563488
 H         -65.023323     -167.066620      -55.994041
 H         -64.662796     -165.574615      -57.984047
 H         -62.860424     -165.648453      -57.705273
