20
 generated by VMD
 C         -77.477127     -202.943954      -69.373993
 N         -77.617355     -203.751633      -68.515724
 H         -75.074440     -201.542953      -67.035141
 H         -77.263596     -202.163467      -70.070030
 C         -74.553307     -201.166290      -67.891876
 C         -75.239235     -199.989456      -68.538414
 C         -73.864082     -202.212997      -68.851654
 C         -74.605354     -199.459747      -69.782303
 C         -73.182129     -201.477478      -70.165665
 C         -74.127724     -200.560822      -70.825623
 H         -75.271416     -199.183304      -67.774139
 H         -76.268707     -200.311478      -68.749519
 H         -73.123245     -202.813034      -68.376602
 H         -74.677643     -202.818039      -69.239708
 H         -73.727272     -198.999603      -69.473038
 H         -75.265205     -198.872406      -70.369774
 H         -72.872139     -202.337402      -70.753349
 H         -72.326691     -200.879547      -69.856415
 H         -73.806908     -199.955109      -71.687759
 H         -75.116707     -201.010773      -71.033623
