20
 generated by VMD
 C         -27.583990      -72.708466      -17.969797
 N         -28.076355      -73.511436      -17.261831
 H         -24.871902      -70.593033      -18.702581
 H         -27.318592      -71.894402      -18.764387
 C         -25.073074      -70.942032      -19.706343
 C         -24.381065      -72.160454      -20.403610
 C         -25.662790      -69.868820      -20.612961
 C         -25.308392      -72.607109      -21.549795
 C         -26.560915      -70.451485      -21.745472
 C         -25.641249      -71.353004      -22.567465
 H         -24.288078      -72.882217      -19.721817
 H         -23.370003      -71.896225      -20.690098
 H         -26.134661      -69.257011      -19.917284
 H         -24.864750      -69.262955      -21.074175
 H         -26.323420      -72.829773      -21.211975
 H         -24.979027      -73.512413      -22.038324
 H         -26.840216      -69.618942      -22.334961
 H         -27.354675      -71.052193      -21.300713
 H         -26.329826      -71.724777      -23.452440
 H         -24.749496      -70.960625      -23.071362
