20
 generated by VMD
 C         -47.381012     -137.252975      -46.145992
 N         -47.169220     -136.721115      -47.098022
 H         -50.371532     -136.321793      -44.710918
 H         -47.783699     -137.907700      -45.389030
 C         -51.156086     -137.115356      -44.828835
 C         -51.445324     -137.907471      -46.022770
 C         -52.261333     -136.960312      -43.853836
 C         -52.063637     -139.267517      -45.685535
 C         -53.118855     -138.216949      -43.553368
 C         -53.303593     -139.022675      -44.823063
 H         -50.542595     -138.259613      -46.397301
 H         -52.082348     -137.374176      -46.803116
 H         -51.900463     -136.601822      -42.855602
 H         -53.032993     -136.280396      -44.223236
 H         -51.486752     -140.034515      -45.286922
 H         -52.325191     -139.630325      -46.682911
 H         -54.021732     -137.961472      -43.001499
 H         -52.599407     -138.757156      -42.778065
 H         -53.646877     -139.902634      -44.514240
 H         -54.058128     -138.474167      -45.387070
