20
 generated by VMD
 C         -31.238453      -75.708870      -21.484499
 N         -32.329559      -75.312332      -21.424330
 H         -27.797802      -75.274132      -20.019938
 H         -30.402473      -76.038223      -22.048079
 C         -26.953579      -75.243668      -20.670227
 C         -26.482630      -76.499969      -21.477699
 C         -26.005539      -74.121727      -20.429819
 C         -25.916082      -76.006416      -22.799818
 C         -25.414780      -73.705093      -21.724926
 C         -24.782618      -74.860512      -22.512877
 H         -27.208746      -77.226959      -21.571394
 H         -25.700899      -77.087814      -20.990009
 H         -26.324614      -73.187248      -19.937885
 H         -25.154987      -74.437462      -19.773211
 H         -26.804201      -75.598442      -23.368578
 H         -25.466545      -76.775383      -23.462973
 H         -24.664106      -72.904236      -21.543262
 H         -26.156902      -73.316261      -22.449905
 H         -24.500301      -74.458008      -23.520670
 H         -24.027267      -75.457001      -21.959270
