20
 generated by VMD
 C         -45.247356     -123.036743      -35.449223
 N         -45.693573     -124.106445      -35.194836
 H         -44.926212     -122.282051      -38.192333
 H         -44.637459     -122.140671      -35.506100
 C         -44.771008     -121.635590      -39.067913
 C         -43.429691     -121.396881      -39.640797
 C         -45.993607     -120.785576      -39.569588
 C         -43.432529     -120.811424      -41.047779
 C         -45.749081     -120.142990      -40.919502
 C         -44.368607     -119.612419      -41.176960
 H         -42.868809     -122.386101      -39.516163
 H         -42.899384     -120.617966      -39.103245
 H         -46.989548     -121.297409      -39.681652
 H         -46.117771     -119.902779      -38.827465
 H         -43.766521     -121.602051      -41.713657
 H         -42.442719     -120.521889      -41.340324
 H         -46.389534     -119.261696      -41.043270
 H         -45.839123     -120.924568      -41.640022
 H         -44.208694     -119.205688      -42.182816
 H         -44.005913     -118.764694      -40.493141
