20
 generated by VMD
 C         -58.590622     -158.908066      -58.137932
 N         -58.921268     -159.587799      -57.216526
 H         -58.982410     -160.863358      -54.815079
 H         -58.299992     -158.334839      -59.037804
 C         -59.437748     -161.235977      -53.935314
 C         -58.642441     -161.373932      -52.684429
 C         -60.726738     -161.882217      -54.195240
 C         -59.581638     -161.465820      -51.464573
 C         -61.637379     -161.777496      -52.979664
 C         -60.905903     -162.257629      -51.737278
 H         -57.963448     -160.493103      -52.521194
 H         -58.028610     -162.201584      -52.904110
 H         -61.304394     -161.461655      -55.027107
 H         -60.500271     -162.865601      -54.520145
 H         -59.844193     -160.352463      -51.407051
 H         -59.029228     -161.979370      -50.685371
 H         -62.528309     -162.398331      -53.125355
 H         -62.088173     -160.795532      -52.872799
 H         -61.527641     -161.943329      -50.875824
 H         -60.592991     -163.264633      -51.890583
