20
 generated by VMD
 C         -40.620804     -119.063904      -35.393940
 N         -39.633949     -118.551758      -35.096539
 H         -44.157639     -117.485207      -36.055817
 H         -41.563805     -119.413704      -35.802280
 C         -43.984249     -117.018120      -36.991287
 C         -43.062199     -117.468803      -38.132290
 C         -45.250534     -116.385567      -37.541676
 C         -43.756775     -118.334145      -39.165730
 C         -45.904224     -117.230667      -38.758255
 C         -44.950447     -117.612518      -39.819641
 H         -42.218491     -118.057030      -37.710140
 H         -42.575935     -116.614708      -38.562862
 H         -45.947842     -116.168121      -36.766499
 H         -44.893085     -115.407684      -38.022800
 H         -44.173038     -119.277336      -38.706001
 H         -43.018463     -118.566231      -39.972057
 H         -46.761478     -116.616898      -38.987221
 H         -46.145485     -118.219688      -38.144733
 H         -45.437244     -118.241051      -40.543594
 H         -44.392738     -116.673744      -40.263393
