20
 generated by VMD
 C         -68.109917     -185.256912      -67.819489
 N         -67.607994     -185.425949      -66.791870
 H         -70.007851     -186.573578      -64.779854
 H         -68.563446     -185.247726      -68.842422
 C         -69.784660     -186.523712      -63.680466
 C         -70.509079     -185.391373      -63.089420
 C         -69.496178     -187.810806      -62.975269
 C         -70.201958     -185.258301      -61.604786
 C         -68.808144     -187.376465      -61.609123
 C         -69.873604     -186.574219      -60.795700
 H         -71.598228     -185.562119      -63.233212
 H         -70.127861     -184.440079      -63.506592
 H         -70.469109     -188.288101      -62.755817
 H         -68.787643     -188.346878      -63.558441
 H         -71.178345     -184.981125      -61.152393
 H         -69.426811     -184.462433      -61.428806
 H         -67.967827     -186.820160      -61.845707
 H         -68.607422     -188.226837      -60.966499
 H         -70.851532     -187.073227      -60.680573
 H         -69.474693     -186.443817      -59.806377
