20
 generated by VMD
 C         -73.107460     -199.770859      -65.612244
 N         -73.917923     -200.505966      -65.238426
 H         -71.422653     -196.876740      -67.034843
 H         -72.371819     -199.238785      -66.239113
 C         -72.143631     -196.417969      -67.705872
 C         -73.276291     -195.562561      -67.148254
 C         -72.385994     -197.061035      -69.036781
 C         -74.251724     -195.133392      -68.197639
 C         -73.852768     -197.302872      -69.331512
 C         -74.884811     -196.314957      -68.980789
 H         -72.971252     -194.739548      -66.581261
 H         -73.735176     -196.390427      -66.484444
 H         -71.970291     -196.418320      -69.792290
 H         -71.826027     -197.973557      -69.134102
 H         -73.803642     -194.429077      -68.913162
 H         -75.043297     -194.557526      -67.686546
 H         -74.111389     -198.235123      -68.829155
 H         -74.033577     -197.450165      -70.392036
 H         -75.330009     -195.879868      -70.019463
 H         -75.638390     -196.768646      -68.284966
