20
 generated by VMD
 C         -58.978775     -151.977280      -49.049393
 N         -59.003628     -152.202545      -50.141773
 H         -56.575165     -150.750153      -48.509144
 H         -58.995266     -151.641998      -48.058842
 C         -55.692089     -150.339081      -49.088558
 C         -54.734589     -151.303970      -49.681957
 C         -55.311325     -148.769455      -49.185669
 C         -54.176018     -150.785400      -51.015163
 C         -54.819279     -148.374084      -50.634815
 C         -53.734440     -149.339310      -50.995804
 H         -55.210949     -152.276230      -49.859730
 H         -53.897457     -151.646866      -49.124470
 H         -56.175068     -148.252502      -48.768990
 H         -54.492180     -148.667877      -48.437237
 H         -54.870480     -150.865829      -51.845680
 H         -53.312527     -151.461212      -51.213551
 H         -54.265209     -147.356110      -50.510994
 H         -55.600201     -148.379364      -51.357182
 H         -53.231834     -149.069244      -51.978664
 H         -52.980812     -149.173721      -50.227997
