20
 generated by VMD
 C         -10.012668      -36.525875       -7.140125
 N         -10.233704      -36.627937       -8.223871
 H         -13.371407      -38.063286       -8.009604
 H         -14.647786      -38.473724       -6.749995
 C         -14.171796      -38.808952       -7.731753
 C         -13.489417      -40.153343       -7.547187
 C         -15.282895      -38.818096       -8.753461
 C         -14.480529      -41.288548       -7.522424
 C         -16.272079      -39.927856       -8.434325
 C         -15.545849      -41.212238       -8.530674
 H         -12.886485      -40.115368       -6.615236
 H         -12.657845      -40.393867       -8.281871
 H         -15.745452      -37.878918       -8.724212
 H         -14.962556      -38.871944       -9.804572
 H         -14.985179      -41.364719       -6.588520
 H         -13.939798      -42.240719       -7.592870
 H         -17.099787      -39.879402       -9.082419
 H         -16.704239      -39.716461       -7.390728
 H         -16.215441      -42.009850       -8.301120
 H         -15.157392      -41.402077       -9.548545
