20
 generated by VMD
 C         -59.900894     -153.108917      -51.244564
 N         -60.565762     -152.197861      -51.655373
 H         -57.095478     -153.373138      -49.419346
 H         -59.360836     -153.874771      -50.707188
 C         -56.267487     -152.841125      -49.855778
 C         -54.878429     -153.211472      -49.533581
 C         -56.636810     -151.403458      -50.325264
 C         -53.816498     -152.529297      -50.384239
 C         -55.619133     -151.000351      -51.390240
 C         -54.228802     -151.098633      -50.898384
 H         -54.616295     -154.342758      -49.679268
 H         -54.794804     -153.137375      -48.440769
 H         -57.577904     -151.378113      -50.886215
 H         -56.609539     -150.679962      -49.535934
 H         -53.553001     -153.215530      -51.181458
 H         -52.772369     -152.447357      -49.949253
 H         -55.708908     -149.877274      -51.731873
 H         -55.678585     -151.755447      -52.225662
 H         -53.516075     -150.540863      -51.623657
 H         -54.168423     -150.396500      -50.021656
