20
 generated by VMD
 C         -67.350906     -177.789352      -57.444901
 N         -67.554817     -178.751419      -56.847931
 H         -64.283844     -176.243088      -59.145809
 H         -67.135201     -176.896393      -57.982628
 C         -64.392128     -175.333267      -59.711441
 C         -65.628441     -174.490616      -59.525742
 C         -63.190735     -174.793015      -60.354244
 C         -65.329620     -172.965302      -59.460621
 C         -62.970417     -173.316406      -60.168552
 C         -64.292801     -172.554703      -60.440617
 H         -66.179474     -174.809479      -58.679668
 H         -66.341881     -174.652649      -60.410374
 H         -62.248425     -175.262207      -60.023109
 H         -63.208233     -175.026611      -61.501511
 H         -64.945831     -172.740967      -58.446251
 H         -66.193810     -172.316025      -59.517216
 H         -62.193302     -172.979568      -60.971672
 H         -62.462147     -173.136887      -59.239052
 H         -63.948204     -171.532837      -60.676601
 H         -64.703644     -172.838440      -61.451885
