20
 generated by VMD
 C         -47.885426     -124.866310      -38.431950
 N         -47.101032     -125.632881      -38.753616
 H         -45.333786     -122.903923      -37.755642
 H         -48.736908     -124.244637      -38.344227
 C         -45.097168     -122.938782      -38.796429
 C         -43.992290     -123.663406      -39.394993
 C         -45.695568     -121.834770      -39.588047
 C         -44.346478     -124.173782      -40.835503
 C         -46.068115     -122.226639      -41.051838
 C         -44.900074     -123.012749      -41.661106
 H         -43.704632     -124.500946      -38.842690
 H         -43.057526     -122.975487      -39.401211
 H         -46.697174     -121.497253      -39.063915
 H         -44.985634     -121.038231      -39.437656
 H         -44.812973     -125.123558      -41.038673
 H         -43.426235     -124.461380      -41.322914
 H         -46.380070     -121.358856      -41.627720
 H         -46.920643     -122.773445      -41.283356
 H         -45.302128     -123.501770      -42.552780
 H         -44.110664     -122.354034      -42.057415
