20
 generated by VMD
 C          -1.707447       -9.509122       -0.120545
 N          -2.538326       -8.915986        0.386945
 H          -2.416475      -10.781789        2.596074
 H          -2.171094      -11.873074        3.941986
 C          -2.781251      -11.662553        3.075655
 C          -2.676078      -12.881872        2.065763
 C          -4.215624      -11.311813        3.281596
 C          -3.364125      -14.066566        2.695760
 C          -4.983251      -12.536379        3.854226
 C          -4.814113      -13.828448        3.018206
 H          -1.614043      -13.126474        1.831704
 H          -3.178663      -12.635365        1.103957
 H          -4.396352      -10.467581        4.009843
 H          -4.805343      -10.973935        2.365755
 H          -2.873077      -14.249584        3.693059
 H          -3.227999      -14.983831        2.093648
 H          -6.047041      -12.339557        3.947659
 H          -4.618806      -12.644497        4.874505
 H          -5.255868      -14.720433        3.495970
 H          -5.373192      -13.741317        2.107727
