20
 generated by VMD
 C         -30.644987      -92.876007      -26.016750
 N         -30.060770      -92.533501      -25.055998
 H         -32.644321      -89.525459      -26.438927
 H         -31.334126      -93.296692      -26.827898
 C         -33.398651      -89.980438      -27.128214
 C         -33.912949      -91.399063      -27.002150
 C         -33.410030      -89.356880      -28.504578
 C         -35.198547      -91.570534      -27.919529
 C         -34.698967      -89.660744      -29.385662
 C         -35.223278      -91.013420      -29.329250
 H         -34.222542      -91.531487      -25.917135
 H         -32.946983      -91.971275      -27.299778
 H         -33.313431      -88.239815      -28.541935
 H         -32.543663      -89.858849      -29.096056
 H         -36.022167      -91.086899      -27.304953
 H         -35.360821      -92.620735      -27.998966
 H         -34.536530      -89.282249      -30.431227
 H         -35.489754      -89.046272      -28.911680
 H         -36.203979      -91.104721      -29.830137
 H         -34.439480      -91.501846      -29.939524
