20
 generated by VMD
 C         -22.570095      -52.570766      -11.950013
 N         -23.700500      -52.402374      -12.025577
 H         -20.002340      -53.914181      -14.307517
 H         -21.524527      -52.863483      -12.154989
 C         -19.000359      -53.694145      -14.177379
 C         -18.538668      -52.313923      -14.377148
 C         -18.123260      -54.606907      -13.423395
 C         -16.998293      -52.182507      -14.231769
 C         -17.160961      -53.919426      -12.466654
 C         -16.188169      -52.973518      -13.201797
 H         -18.971403      -51.753647      -13.491360
 H         -18.976368      -51.925373      -15.271740
 H         -18.804544      -55.277458      -12.936289
 H         -17.393806      -55.226841      -14.028729
 H         -16.732792      -51.112915      -14.099454
 H         -16.657465      -52.441261      -15.252809
 H         -16.636719      -54.665043      -11.850100
 H         -17.790644      -53.327026      -11.736883
 H         -15.767798      -52.259251      -12.508588
 H         -15.398374      -53.515488      -13.745084
