20
 generated by VMD
 C         -32.675892      -96.276047      -25.447384
 N         -33.012356      -95.871735      -24.423384
 H         -34.338066      -93.851898      -27.454151
 H         -32.496677      -96.580559      -26.432302
 C         -34.514805      -93.565918      -28.444653
 C         -35.957005      -93.627098      -28.891848
 C         -33.382263      -93.320732      -29.459415
 C         -36.123615      -92.434685      -29.973431
 C         -33.761375      -92.196075      -30.464228
 C         -35.152626      -92.249779      -31.079245
 H         -36.657326      -93.512817      -27.993431
 H         -36.266960      -94.491875      -29.461699
 H         -32.579494      -92.898186      -28.815735
 H         -33.100956      -94.280106      -29.917904
 H         -36.161846      -91.384491      -29.513071
 H         -37.141041      -92.584267      -30.284512
 H         -33.131653      -92.187096      -31.401043
 H         -33.479942      -91.290016      -30.060440
 H         -35.492249      -91.454010      -31.573807
 H         -35.190014      -92.992859      -31.875391
