20
 generated by VMD
 C         -15.119889      -46.058769       -6.699204
 N         -14.683898      -46.997036       -6.301067
 H         -15.615359      -44.441803       -9.213979
 H         -14.604537      -44.534691      -10.746315
 C         -15.630936      -44.656075      -10.285339
 C         -16.460497      -43.535961      -10.985827
 C         -16.196030      -46.096264      -10.492724
 C         -16.613703      -43.893055      -12.471186
 C         -16.448368      -46.337906      -11.989419
 C         -17.266794      -45.278896      -12.724970
 H         -15.814459      -42.670902      -10.889128
 H         -17.387232      -43.441925      -10.381578
 H         -15.546136      -46.915783      -10.158131
 H         -17.161791      -46.094528       -9.928249
 H         -15.648130      -43.958805      -12.981363
 H         -17.218760      -43.097290      -12.957061
 H         -16.919388      -47.296803      -12.142642
 H         -15.378400      -46.392494      -12.476066
 H         -17.381887      -45.363003      -13.801417
 H         -18.356302      -45.342083      -12.374513
