20
 generated by VMD
 C          -1.502185      -17.180861        2.059202
 N          -1.584700      -17.322975        3.166472
 H          -5.262518      -17.051325        0.831508
 H          -5.036810      -18.406717       -0.365261
 C          -5.737441      -17.706621        0.062547
 C          -6.391691      -16.747614       -0.953507
 C          -6.933351      -18.545937        0.660671
 C          -7.044345      -17.552269       -2.170175
 C          -7.569531      -19.340227       -0.462298
 C          -8.086591      -18.518301       -1.575048
 H          -5.669231      -16.043100       -1.411478
 H          -7.187242      -16.111156       -0.516674
 H          -6.509633      -19.217505        1.502161
 H          -7.614514      -17.818645        1.130903
 H          -6.209220      -18.102528       -2.667517
 H          -7.565856      -16.830069       -2.848978
 H          -8.410388      -19.813293        0.034648
 H          -6.898216      -20.087444       -0.817063
 H          -8.477027      -19.174387       -2.347356
 H          -8.905738      -17.897959       -1.197397
