20
 generated by VMD
 C         -40.254921     -105.827293      -37.036621
 N         -40.010151     -106.784058      -37.637264
 H         -38.440098     -108.340546      -35.021660
 H         -40.394241     -105.073494      -36.264393
 C         -39.153790     -108.567070      -34.226410
 C         -38.430149     -109.457634      -33.119648
 C         -40.576225     -108.933846      -34.469383
 C         -39.353264     -109.815094      -31.893669
 C         -41.405090     -109.261887      -33.234921
 C         -40.722225     -110.271378      -32.359791
 H         -37.570011     -108.904938      -32.717693
 H         -38.217251     -110.405830      -33.644115
 H         -40.984322     -108.102844      -35.123825
 H         -40.546001     -109.775787      -35.121174
 H         -39.667603     -108.974533      -31.283279
 H         -38.814003     -110.543678      -31.230190
 H         -42.482361     -109.418808      -33.405968
 H         -41.396576     -108.289169      -32.640083
 H         -41.391014     -110.445030      -31.485943
 H         -40.653542     -111.209335      -32.921730
