20
 generated by VMD
 C         -68.418961     -189.412521      -67.230888
 N         -67.280769     -189.186890      -67.026024
 H         -68.640648     -188.252609      -63.871082
 H         -69.531158     -189.418579      -67.356651
 C         -69.631714     -188.434677      -63.443752
 C         -70.290955     -189.886383      -63.488899
 C         -70.448418     -187.283966      -62.978630
 C         -71.503723     -189.681900      -64.357178
 C         -71.887512     -187.290985      -63.567608
 C         -72.425919     -188.707840      -63.730400
 H         -70.567886     -190.254517      -62.438061
 H         -69.593964     -190.739914      -63.865776
 H         -70.556030     -187.425858      -61.911392
 H         -69.990044     -186.272980      -63.365639
 H         -72.014236     -190.643570      -64.595238
 H         -71.164536     -189.346436      -65.315384
 H         -71.688133     -186.903198      -64.595062
 H         -72.753105     -186.742493      -63.042694
 H         -72.908943     -189.109390      -62.799164
 H         -73.337776     -188.481537      -64.347839
