20
 generated by VMD
 C         -75.143082     -201.288635      -66.397835
 N         -75.504265     -202.102631      -65.646248
 H         -76.292854     -199.247223      -69.543991
 H         -74.854202     -200.635956      -67.148102
 C         -75.288521     -199.073639      -69.271004
 C         -74.854851     -198.200485      -68.182770
 C         -74.213501     -199.698486      -70.040382
 C         -73.366417     -197.847076      -68.035164
 C         -73.132935     -198.637955      -70.447182
 C         -72.771034     -197.567139      -69.429146
 H         -75.047745     -198.669022      -67.320610
 H         -75.367897     -197.220627      -68.302101
 H         -73.734261     -200.513123      -69.448853
 H         -74.661606     -200.390488      -70.829498
 H         -72.836433     -198.690308      -67.594170
 H         -73.124535     -197.092590      -67.333679
 H         -73.389023     -198.184052      -71.419868
 H         -72.210205     -199.107468      -70.599457
 H         -71.680397     -197.488876      -69.566772
 H         -73.256836     -196.627762      -69.788597
