20
 generated by VMD
 C         -78.090752     -204.238098      -69.542679
 N         -79.054459     -203.697220      -70.001900
 H         -76.189598     -203.037689      -67.888382
 H         -77.211205     -204.748962      -69.222542
 C         -75.519989     -202.541489      -68.615128
 C         -75.744263     -201.180023      -69.317398
 C         -74.220093     -203.145355      -68.933929
 C         -74.824226     -201.042007      -70.678932
 C         -73.100098     -202.418030      -69.530746
 C         -73.341446     -201.257172      -70.454369
 H         -75.609428     -200.398178      -68.536957
 H         -76.776482     -201.169800      -69.678703
 H         -73.892769     -203.731949      -68.036575
 H         -74.526741     -203.965363      -69.544785
 H         -74.988426     -199.978180      -70.994995
 H         -75.193970     -201.627380      -71.501198
 H         -72.495956     -203.138824      -70.103615
 H         -72.326286     -202.226486      -68.775475
 H         -72.955063     -200.329056      -69.943413
 H         -72.716759     -201.373032      -71.328819
