20
 generated by VMD
 C         -76.683975     -203.201431      -66.646896
 N         -77.437820     -203.736160      -65.965302
 H         -75.325424     -200.550385      -68.244392
 H         -76.047356     -202.787292      -67.356018
 C         -74.798546     -199.935333      -68.973694
 C         -74.793770     -198.498993      -68.771530
 C         -73.618675     -200.457504      -69.740677
 C         -73.455475     -197.880249      -68.858788
 C         -73.258850     -199.344589      -70.804855
 C         -72.780258     -198.084869      -70.185066
 H         -75.299019     -198.205536      -67.809532
 H         -75.361061     -198.117462      -69.586746
 H         -72.746559     -200.640381      -69.107742
 H         -73.862152     -201.473495      -70.100647
 H         -72.875458     -198.166885      -68.001228
 H         -73.464165     -196.786575      -68.703690
 H         -74.164787     -199.023529      -71.272827
 H         -72.435265     -199.728882      -71.431030
 H         -71.647369     -197.967941      -70.038551
 H         -73.085075     -197.290314      -70.930618
