20
 generated by VMD
 C         -70.604294     -196.691177      -65.788231
 N         -69.455734     -196.548859      -65.975227
 H         -73.703140     -195.374619      -64.830261
 H         -71.689262     -196.634689      -65.622879
 C         -73.454971     -195.098877      -65.818665
 C         -72.695717     -193.797470      -65.874741
 C         -74.467567     -195.401321      -66.829002
 C         -72.593864     -193.192871      -67.341362
 C         -73.900848     -195.181168      -68.228462
 C         -73.536987     -193.694641      -68.434875
 H         -71.750404     -193.955414      -65.532089
 H         -73.260742     -193.038574      -65.211639
 H         -75.071701     -196.332336      -66.849037
 H         -75.283119     -194.652664      -66.842331
 H         -71.574661     -193.349625      -67.745422
 H         -72.697151     -192.101639      -67.245934
 H         -74.596230     -195.471664      -69.069939
 H         -73.075493     -195.844864      -68.270813
 H         -72.955795     -193.639740      -69.455780
 H         -74.424515     -193.141129      -68.548378
