20
 generated by VMD
 C         -78.643929     -210.297577      -76.343452
 N         -77.547165     -210.537781      -76.658134
 H         -79.820808     -212.058014      -74.680740
 H         -79.600990     -210.025940      -76.044136
 C         -79.654457     -212.414597      -73.715919
 C         -78.304810     -212.564362      -73.127769
 C         -80.876190     -213.136749      -73.206108
 C         -78.414215     -212.743179      -71.473373
 C         -80.868912     -213.571426      -71.731934
 C         -79.399521     -213.858124      -71.253281
 H         -77.615173     -211.765610      -73.424591
 H         -77.806854     -213.483353      -73.593925
 H         -81.753983     -212.514145      -73.401871
 H         -80.928696     -214.114456      -73.745804
 H         -78.808594     -211.869629      -70.976425
 H         -77.393921     -212.936966      -71.188255
 H         -81.434433     -214.548706      -71.652542
 H         -81.479439     -212.951324      -71.140160
 H         -79.432121     -214.070816      -70.164589
 H         -79.104050     -214.659317      -71.903122
