20
 generated by VMD
 C          -8.484423      -23.557570        2.271845
 N          -7.888415      -23.982773        3.108965
 H          -9.074339      -23.371569       -1.608710
 H          -9.321586      -22.423918       -2.928683
 C          -8.494513      -22.911329       -2.402196
 C          -7.733073      -23.893473       -3.237843
 C          -7.596354      -21.824409       -1.838333
 C          -7.079179      -23.160963       -4.491871
 C          -6.909733      -21.000084       -3.037990
 C          -6.215605      -21.941656       -4.066508
 H          -8.307034      -24.788309       -3.646235
 H          -6.966928      -24.356577       -2.601214
 H          -8.226162      -21.226759       -1.138045
 H          -6.761451      -22.329046       -1.340298
 H          -7.947547      -22.843336       -5.052532
 H          -6.496374      -23.891958       -4.984291
 H          -6.220622      -20.217752       -2.647326
 H          -7.747063      -20.580143       -3.610248
 H          -5.977945      -21.348196       -5.010030
 H          -5.263827      -22.304199       -3.601451
