20
 generated by VMD
 C         -12.643822      -27.807339       -4.366273
 N         -13.761308      -27.834967       -4.485268
 H         -10.681796      -29.347698       -2.553789
 H         -10.497483      -28.102579       -3.808396
 C          -9.916958      -28.908474       -3.220925
 C          -9.407725      -29.786434       -4.386707
 C          -8.805480      -28.386520       -2.339141
 C          -8.488510      -28.972956       -5.229846
 C          -7.717269      -27.649881       -3.160105
 C          -7.276246      -28.504955       -4.445732
 H         -10.117742      -30.318356       -5.009183
 H          -8.898056      -30.697067       -3.881083
 H          -9.164512      -27.836971       -1.488401
 H          -8.414169      -29.318308       -1.896944
 H          -9.007221      -28.083611       -5.686886
 H          -8.184657      -29.581945       -6.087471
 H          -6.822424      -27.307261       -2.621146
 H          -8.111636      -26.674576       -3.556513
 H          -6.612597      -27.924513       -5.088191
 H          -6.770111      -29.387499       -3.980061
