20
 generated by VMD
 C          -1.728620      -16.675016        2.720852
 N          -2.099868      -15.669464        2.424004
 H          -4.270912      -15.972487       -0.274599
 H          -4.766198      -17.177269       -1.419659
 C          -5.113418      -16.621771       -0.510485
 C          -6.346574      -15.855949       -0.767258
 C          -5.253955      -17.607632        0.630782
 C          -7.426326      -16.832449       -1.168081
 C          -6.456908      -18.548771        0.400923
 C          -7.769893      -17.814688       -0.108894
 H          -6.214731      -15.109115       -1.576074
 H          -6.610730      -15.258380        0.090254
 H          -4.349611      -18.082918        0.859404
 H          -5.350383      -17.049772        1.521648
 H          -7.041876      -17.432354       -2.065662
 H          -8.273534      -16.223402       -1.525334
 H          -6.727073      -19.127670        1.323442
 H          -6.293620      -19.256639       -0.390216
 H          -8.468747      -18.537544       -0.513354
 H          -8.149513      -17.364822        0.801649
