20
 generated by VMD
 C         -19.213352      -63.446655      -16.698534
 N         -20.197985      -62.936836      -17.080385
 H         -22.684446      -64.474983      -17.344797
 H         -18.356991      -63.979893      -16.672176
 C         -23.708380      -64.246338      -17.395714
 C         -24.304697      -64.068886      -18.759474
 C         -24.612972      -65.053589      -16.456995
 C         -24.715328      -65.461273      -19.332348
 C         -24.907187      -66.495163      -17.041792
 C         -25.517275      -66.515625      -18.396212
 H         -23.624733      -63.460682      -19.506756
 H         -25.108498      -63.270069      -18.748755
 H         -24.069134      -65.346375      -15.519501
 H         -25.491245      -64.479477      -16.346096
 H         -23.806377      -65.930435      -19.825174
 H         -25.410669      -65.257225      -20.166872
 H         -25.551844      -66.864883      -16.207012
 H         -24.034195      -67.151962      -16.989117
 H         -25.498230      -67.575150      -18.889143
 H         -26.498650      -66.080109      -18.370935
