20
 generated by VMD
 C         -79.648903     -207.005569      -75.863235
 N         -80.179588     -207.172546      -74.861061
 H         -77.220284     -207.922745      -73.040627
 H         -78.960548     -206.821518      -76.698975
 C         -76.967484     -208.591797      -72.159447
 C         -75.766747     -208.247726      -71.415672
 C         -77.857300     -209.646988      -71.654060
 C         -76.143829     -207.831085      -69.967751
 C         -78.210892     -209.475220      -70.132133
 C         -76.961403     -208.919708      -69.292892
 H         -74.962914     -207.637604      -71.826355
 H         -75.291031     -209.237869      -71.398521
 H         -78.896004     -209.641342      -72.056572
 H         -77.513596     -210.659561      -71.869995
 H         -76.601044     -206.858780      -69.970688
 H         -75.178787     -207.641724      -69.449509
 H         -78.625183     -210.415436      -69.746239
 H         -78.978630     -208.684082      -70.031570
 H         -77.167236     -208.640320      -68.201118
 H         -76.178345     -209.655350      -69.213326
