20
 generated by VMD
 C         -79.222893     -209.161011      -76.809074
 N         -79.020653     -209.947235      -76.019707
 H         -77.673317     -209.688889      -73.470184
 H         -79.417801     -208.415970      -77.626678
 C         -78.098824     -210.354156      -72.699326
 C         -77.160492     -210.846390      -71.614334
 C         -79.193924     -211.410019      -73.069977
 C         -77.871475     -211.553909      -70.394142
 C         -79.946709     -211.873245      -71.784882
 C         -78.968025     -212.567810      -70.770439
 H         -76.607819     -209.946045      -71.336334
 H         -76.515541     -211.566849      -72.039345
 H         -79.845459     -210.962585      -73.780243
 H         -78.727921     -212.315414      -73.567474
 H         -78.295853     -210.756683      -69.757248
 H         -77.175354     -212.004471      -69.681122
 H         -80.611649     -212.585266      -72.089424
 H         -80.435524     -210.947083      -71.307709
 H         -79.664612     -212.931198      -69.994835
 H         -78.462105     -213.439285      -71.207001
