20
 generated by VMD
 C         -20.643690      -64.442406      -16.829996
 N         -19.588223      -64.062088      -16.478781
 H         -24.155947      -63.253235      -17.576944
 H         -21.581364      -64.605286      -17.191797
 C         -24.437183      -64.338623      -17.803036
 C         -24.578585      -64.620949      -19.283806
 C         -24.592564      -65.315964      -16.765917
 C         -24.814171      -65.999626      -19.760250
 C         -24.616600      -66.713531      -17.215134
 C         -25.419258      -66.828857      -18.548723
 H         -23.767071      -64.183487      -19.861101
 H         -25.357750      -63.905571      -19.658670
 H         -23.817518      -65.214806      -16.030416
 H         -25.548763      -65.082657      -16.195866
 H         -23.946192      -66.562531      -20.031355
 H         -25.501524      -66.144485      -20.566380
 H         -24.893448      -67.395050      -16.397497
 H         -23.583162      -66.944832      -17.489773
 H         -25.426603      -67.865952      -18.939644
 H         -26.438591      -66.430183      -18.362926
