20
 generated by VMD
 C         -70.303719     -182.743393      -65.801910
 N         -71.054367     -183.613586      -65.610046
 H         -67.745781     -182.002014      -63.029205
 H         -69.620560     -181.914551      -66.018303
 C         -67.272491     -181.999039      -62.096470
 C         -67.628235     -183.101166      -61.077694
 C         -67.044479     -180.554077      -61.594440
 C         -66.677322     -182.947968      -59.982216
 C         -65.985115     -180.618515      -60.487621
 C         -66.416405     -181.588409      -59.450607
 H         -67.618851     -184.044601      -61.579975
 H         -68.626648     -183.040268      -60.709808
 H         -66.704239     -179.811127      -62.317688
 H         -68.017128     -180.121246      -61.028828
 H         -65.650162     -183.330002      -60.095371
 H         -67.045761     -183.678162      -59.129505
 H         -65.945602     -179.586990      -60.133472
 H         -64.944435     -180.895706      -60.816463
 H         -65.616783     -181.569611      -58.762363
 H         -67.309570     -181.031555      -59.083187
