20
 generated by VMD
 C         -31.757280      -75.840622      -23.998909
 N         -31.073835      -76.257469      -24.836483
 H         -29.592497      -78.478180      -22.190182
 H         -32.011829      -75.401085      -23.070452
 C         -28.605528      -78.120720      -22.064533
 C         -27.569534      -78.313072      -23.234556
 C         -28.189453      -78.145088      -20.652891
 C         -26.276510      -77.553665      -22.925505
 C         -26.800539      -77.611748      -20.502441
 C         -25.713362      -77.929375      -21.553917
 H         -28.039764      -77.839668      -24.102505
 H         -27.339685      -79.364182      -23.590441
 H         -28.905479      -77.511795      -20.128210
 H         -28.335331      -79.117073      -20.071705
 H         -26.357817      -76.463806      -23.057781
 H         -25.582785      -77.917870      -23.665346
 H         -26.545998      -77.946136      -19.375681
 H         -26.781981      -76.454178      -20.409941
 H         -24.846916      -77.351929      -21.353018
 H         -25.540442      -79.028999      -21.418715
