20
 generated by VMD
 C         -49.018894     -133.038544      -47.158134
 N         -48.236828     -133.178253      -47.919277
 H         -48.437325     -134.474335      -43.720020
 H         -49.820316     -133.236511      -46.525803
 C         -49.452068     -134.874939      -43.844334
 C         -49.853519     -136.304749      -44.410397
 C         -50.568417     -134.265182      -42.985600
 C         -50.254959     -137.192139      -43.268181
 C         -51.041134     -135.217957      -41.891171
 C         -51.445370     -136.600281      -42.461075
 H         -49.009705     -136.655838      -44.965870
 H         -50.716457     -136.121277      -45.171753
 H         -50.204857     -133.334030      -42.577145
 H         -51.392471     -134.057999      -43.735119
 H         -49.318592     -137.365250      -42.763062
 H         -50.609249     -138.137360      -43.652821
 H         -51.740192     -134.809509      -41.180588
 H         -50.169079     -135.516953      -41.338417
 H         -51.641048     -137.339630      -41.741985
 H         -52.210670     -136.536560      -43.205135
