20
 generated by VMD
 C         -29.520119      -74.684921      -19.754049
 N         -30.578640      -74.510612      -20.220245
 H         -25.846329      -73.594330      -18.759014
 H         -28.557579      -74.966728      -19.111462
 C         -25.741579      -73.446930      -19.799040
 C         -25.343895      -74.665283      -20.712084
 C         -25.396441      -72.152100      -20.475006
 C         -25.961308      -74.561165      -22.106541
 C         -26.051428      -72.056175      -21.917360
 C         -25.777857      -73.186966      -22.873285
 H         -25.678507      -75.638199      -20.123465
 H         -24.288332      -74.821480      -20.756214
 H         -25.725458      -71.188614      -20.122095
 H         -24.291275      -71.963997      -20.551933
 H         -27.045412      -74.657440      -22.070730
 H         -25.605434      -75.426003      -22.715855
 H         -25.561264      -71.100143      -22.330269
 H         -27.093864      -71.871193      -21.824539
 H         -26.601851      -73.097458      -23.674423
 H         -24.841761      -73.245743      -23.489943
