20
 generated by VMD
 C         -32.256638      -94.885956      -25.488569
 N         -33.322853      -95.006271      -25.087696
 H         -33.933426      -94.863258      -28.200491
 H         -31.254246      -94.971436      -25.793432
 C         -34.281830      -93.979828      -28.718363
 C         -35.755684      -93.594986      -28.693645
 C         -33.365803      -93.490677      -29.807014
 C         -35.944050      -92.116989      -29.008869
 C         -33.599174      -92.011459      -30.196331
 C         -35.100174      -91.771980      -30.250286
 H         -35.976311      -93.917679      -27.694033
 H         -36.358948      -94.216919      -29.431095
 H         -32.325470      -93.563187      -29.538979
 H         -33.554806      -94.081612      -30.723516
 H         -35.705669      -91.364716      -28.213308
 H         -37.003059      -92.080246      -29.142239
 H         -33.169529      -91.751343      -31.167471
 H         -33.243969      -91.469017      -29.300327
 H         -35.293343      -90.710976      -30.498972
 H         -35.367245      -92.236473      -31.291752
