20
 generated by VMD
 C          -7.025601      -23.278997        2.964966
 N          -6.240316      -22.616596        2.566780
 H          -6.828400      -21.578627       -0.095155
 H          -8.282898      -21.981022       -0.915579
 C          -7.271545      -21.525318       -1.117019
 C          -6.483928      -22.381744       -2.161618
 C          -7.356907      -20.040394       -1.578143
 C          -7.080814      -22.155701       -3.590625
 C          -7.949364      -19.837120       -3.000569
 C          -7.110945      -20.675535       -3.998684
 H          -6.517581      -23.482588       -1.925621
 H          -5.479027      -22.089819       -2.216459
 H          -7.984414      -19.438412       -0.910872
 H          -6.343107      -19.585955       -1.557480
 H          -8.108622      -22.601564       -3.625420
 H          -6.400590      -22.673637       -4.278242
 H          -7.825818      -18.814034       -3.336875
 H          -9.014728      -20.071274       -2.970868
 H          -7.665991      -20.670486       -4.954690
 H          -6.142476      -20.172213       -4.148217
