20
 generated by VMD
 C         -41.465332     -102.341103      -35.547970
 N         -41.508137     -103.456573      -35.886566
 H         -39.238888     -104.566795      -33.445988
 H         -41.086002     -101.405144      -35.316475
 C         -38.623909     -105.119858      -32.805408
 C         -37.257999     -104.441673      -32.916370
 C         -38.914711     -106.361038      -32.051655
 C         -36.430794     -104.725410      -31.631836
 C         -38.103046     -106.536255      -30.778669
 C         -36.616547     -106.114090      -31.037251
 H         -37.349594     -103.343430      -32.975182
 H         -36.742283     -104.723907      -33.793808
 H         -39.977333     -106.437256      -31.815340
 H         -38.596485     -107.245377      -32.634037
 H         -36.560314     -104.043228      -30.834797
 H         -35.409580     -104.534233      -31.862436
 H         -38.351879     -107.565063      -30.402348
 H         -38.402752     -105.847733      -30.075216
 H         -36.153095     -106.197441      -29.985928
 H         -36.101303     -106.765007      -31.714035
