20
 generated by VMD
 C         -80.160027     -206.882782      -74.046005
 N         -80.526520     -206.449112      -75.052551
 H         -77.027580     -207.289673      -73.020721
 H         -79.987236     -207.416367      -73.147240
 C         -76.722649     -207.430206      -71.931503
 C         -75.469246     -206.866333      -71.426895
 C         -77.227577     -208.561737      -71.123863
 C         -75.557289     -206.451218      -69.971237
 C         -77.218307     -208.289230      -69.564804
 C         -75.791649     -207.672287      -69.113892
 H         -75.212311     -205.922714      -71.936646
 H         -74.785652     -207.663635      -71.637108
 H         -78.278275     -208.789703      -71.365540
 H         -76.576721     -209.477722      -71.288132
 H         -76.235359     -205.659164      -69.661926
 H         -74.520203     -206.062317      -69.822906
 H         -77.336510     -209.271561      -68.961510
 H         -78.008141     -207.600296      -69.253006
 H         -75.723305     -207.562729      -68.064484
 H         -75.034210     -208.444870      -69.469391
