20
 generated by VMD
 C         -67.559410     -179.843246      -58.453182
 N         -68.280540     -179.886307      -59.354996
 H         -67.450928     -176.893646      -59.994965
 H         -66.972580     -179.781158      -57.584740
 C         -66.401039     -176.375488      -60.146484
 C         -66.041534     -175.610519      -61.387348
 C         -65.265755     -176.878937      -59.256569
 C         -64.880592     -174.571777      -61.195950
 C         -64.127342     -175.906754      -59.236362
 C         -63.709572     -175.343018      -60.549519
 H         -66.918709     -175.082352      -61.840115
 H         -65.570908     -176.346771      -62.028309
 H         -65.515640     -177.169342      -58.206379
 H         -64.914215     -177.800461      -59.867188
 H         -65.339119     -173.802292      -60.506260
 H         -64.417564     -174.075989      -62.163715
 H         -63.265316     -176.304306      -58.613701
 H         -64.393112     -175.080414      -58.589333
 H         -63.075352     -174.485382      -60.418915
 H         -63.463001     -176.159698      -61.250446
