20
 generated by VMD
 C         -47.429420     -138.390137      -45.699619
 N         -47.090992     -138.156647      -46.836323
 H         -50.532257     -138.137100      -44.503139
 H         -47.643295     -138.522018      -44.663612
 C         -51.449608     -138.532639      -44.932232
 C         -51.659184     -138.848877      -46.389000
 C         -52.656898     -138.073837      -44.255459
 C         -52.746986     -139.918091      -46.492554
 C         -53.860046     -139.000198      -44.454769
 C         -53.990841     -139.508057      -45.865177
 H         -50.785442     -139.328735      -46.826088
 H         -51.933254     -138.009369      -47.044327
 H         -52.467892     -138.157196      -43.193943
 H         -52.843609     -137.104782      -44.613316
 H         -52.463326     -140.911270      -46.034058
 H         -52.869312     -140.055542      -47.592758
 H         -54.819099     -138.497650      -44.129719
 H         -53.685829     -139.911728      -43.837044
 H         -54.771706     -140.378235      -45.798264
 H         -54.390205     -138.590256      -46.322304
