20
 generated by VMD
 C         -21.855696      -55.610470      -17.661398
 N         -20.768082      -55.578518      -18.087543
 H         -22.529371      -57.694691      -14.964176
 H         -22.877533      -55.747444      -17.024662
 C         -21.870161      -58.579758      -14.809074
 C         -21.385416      -58.837261      -13.369105
 C         -21.631165      -59.554852      -15.891869
 C         -21.095392      -60.356327      -13.246252
 C         -20.245464      -60.037102      -15.673954
 C         -20.090860      -60.747791      -14.286538
 H         -22.198732      -58.567787      -12.745600
 H         -20.589600      -58.193306      -13.020299
 H         -22.335234      -60.418018      -15.737922
 H         -21.847771      -59.025288      -16.857821
 H         -21.991476      -61.056259      -13.270209
 H         -20.639059      -60.559456      -12.229989
 H         -19.512209      -59.226025      -15.757162
 H         -20.047565      -60.785416      -16.468805
 H         -20.237900      -61.769249      -14.532474
 H         -19.072889      -60.642479      -13.900947
