20
 generated by VMD
 C         -37.002014      -98.348587      -27.355221
 N         -37.799294      -98.293159      -26.520004
 H         -36.670269      -95.961746      -29.430084
 H         -36.254124      -98.248077      -28.157940
 C         -35.653381      -96.427086      -29.555525
 C         -35.373569      -97.243881      -30.779789
 C         -34.480705      -95.599930      -29.086029
 C         -35.060162      -96.266174      -31.878859
 C         -34.158543      -94.570992      -30.078302
 C         -33.905487      -95.343437      -31.487381
 H         -36.213669      -97.899246      -30.949026
 H         -34.474277      -97.941467      -30.631927
 H         -34.435280      -95.001648      -28.192568
 H         -33.713390      -96.378899      -29.039936
 H         -35.966442      -95.712639      -32.151516
 H         -34.621017      -96.769875      -32.805058
 H         -33.328682      -93.810501      -29.790775
 H         -35.100197      -94.035545      -30.299353
 H         -33.874439      -94.501160      -32.210960
 H         -32.903618      -95.891609      -31.389189
