20
 generated by VMD
 C         -49.167042     -140.875458      -45.439049
 N         -48.048191     -141.190109      -45.174248
 H         -51.329708     -138.571182      -46.084419
 H         -50.204082     -140.594955      -45.641644
 C         -51.971958     -139.389542      -46.264385
 C         -52.727867     -139.308151      -47.674633
 C         -52.818157     -139.904602      -45.071804
 C         -53.323624     -140.718002      -47.906799
 C         -53.552685     -141.179443      -45.455273
 C         -54.280090     -141.116760      -46.820717
 H         -51.938156     -139.190094      -48.464001
 H         -53.524658     -138.619354      -47.763142
 H         -52.193466     -139.922546      -44.170261
 H         -53.544117     -139.021805      -44.901493
 H         -52.670597     -141.691818      -47.923489
 H         -53.843842     -140.703964      -48.939228
 H         -54.142765     -141.545364      -44.619354
 H         -52.703278     -141.781494      -45.523735
 H         -54.741699     -142.038544      -47.126205
 H         -55.032169     -140.411789      -46.665638
