20
 generated by VMD
 C         -39.945950     -100.943100      -31.588520
 N         -40.637051     -100.104828      -31.106977
 H         -37.259670     -103.621391      -31.552061
 H         -39.161507     -101.663513      -31.759518
 C         -36.845284     -102.554230      -31.561329
 C         -36.058533     -101.968277      -32.808277
 C         -36.639381     -102.040718      -30.170586
 C         -35.853722     -100.521507      -32.538975
 C         -36.236691     -100.545235      -30.064297
 C         -35.217541     -100.226219      -31.179361
 H         -36.726257     -102.067566      -33.684853
 H         -35.175034     -102.528664      -32.924049
 H         -37.520271     -102.275566      -29.647167
 H         -35.877529     -102.708511      -29.681387
 H         -36.799393      -99.948662      -32.579021
 H         -35.193592     -100.136742      -33.334263
 H         -35.883537     -100.296356      -29.019089
 H         -37.140045     -100.034012      -30.247538
 H         -35.119144      -99.108818      -31.187729
 H         -34.240849     -100.780403      -31.046255
