20
 generated by VMD
 C         -44.451515     -122.200157      -36.030201
 N         -43.951332     -121.141701      -35.877445
 H         -44.915974     -122.682327      -39.386868
 H         -45.178864     -123.083908      -36.076950
 C         -44.881241     -121.642807      -39.582661
 C         -43.478146     -121.173042      -39.415367
 C         -45.950436     -120.693977      -39.158867
 C         -43.282001     -119.829636      -40.109360
 C         -45.732590     -119.368698      -39.887733
 C         -44.336159     -118.704613      -39.637852
 H         -42.804821     -121.927773      -39.984825
 H         -43.174816     -121.241508      -38.347668
 H         -46.988907     -120.816780      -39.434723
 H         -45.828541     -120.610809      -38.116238
 H         -43.424461     -119.888367      -41.263767
 H         -42.318703     -119.508530      -39.746323
 H         -46.379509     -118.618027      -39.502998
 H         -45.756451     -119.476570      -40.973095
 H         -44.211746     -117.818787      -40.176929
 H         -44.287613     -118.513657      -38.600647
