20
 generated by VMD
 C         -74.209503     -200.846558      -66.049294
 N         -73.076820     -200.879517      -66.256424
 H         -76.174332     -198.454010      -67.692368
 H         -75.152229     -200.525894      -65.724464
 C         -75.275192     -198.139008      -68.155922
 C         -74.870064     -196.704941      -67.779190
 C         -74.500320     -198.795624      -69.268272
 C         -73.541908     -196.233109      -68.377556
 C         -73.248169     -198.098404      -69.889679
 C         -72.557938     -197.237198      -68.883148
 H         -74.904129     -196.659546      -66.596001
 H         -75.728889     -196.222427      -68.097984
 H         -74.023369     -199.647430      -68.836464
 H         -75.193192     -199.141724      -69.978142
 H         -73.122284     -195.522385      -67.611816
 H         -73.802017     -195.617004      -69.233276
 H         -73.649727     -197.393326      -70.647675
 H         -72.454773     -198.786026      -70.352989
 H         -72.246140     -197.800598      -67.950432
 H         -71.608246     -196.800110      -69.361473
