20
 generated by VMD
 C         -37.106300      -98.276688      -25.769306
 N         -36.301758      -98.449425      -26.587389
 H         -36.057751      -96.014244      -28.527546
 H         -37.717930      -98.204933      -24.862524
 C         -35.642334      -95.432381      -29.373753
 C         -35.697075      -96.445305      -30.564030
 C         -34.393517      -94.649841      -29.159271
 C         -35.167679      -95.641426      -31.806822
 C         -33.803490      -94.065857      -30.446619
 C         -33.782513      -95.085655      -31.624887
 H         -36.820827      -96.689133      -30.728630
 H         -35.125526      -97.367645      -30.341742
 H         -34.475517      -93.759621      -28.541735
 H         -33.636749      -95.238014      -28.663654
 H         -35.765633      -94.818771      -32.253632
 H         -35.015411      -96.334122      -32.601776
 H         -32.820210      -93.637093      -30.197496
 H         -34.580509      -93.243568      -30.660501
 H         -33.362125      -94.588997      -32.447643
 H         -32.978622      -95.947479      -31.400011
