20
 generated by VMD
 C         -27.524494      -84.648117      -26.493143
 N         -27.679541      -85.764481      -26.782236
 H         -31.151413      -85.043266      -25.795273
 H         -27.367783      -83.602280      -26.167940
 C         -32.023293      -85.638466      -25.784706
 C         -32.437984      -86.002663      -24.388624
 C         -32.238174      -86.607445      -26.933826
 C         -33.667751      -87.060356      -24.270304
 C         -33.492065      -87.445068      -26.700838
 C         -33.518551      -88.059578      -25.347965
 H         -32.659161      -85.103584      -23.810951
 H         -31.606480      -86.545082      -23.865583
 H         -32.314888      -86.046898      -27.895481
 H         -31.339548      -87.241699      -26.898457
 H         -34.547520      -86.463066      -24.339123
 H         -33.484798      -87.616936      -23.310116
 H         -33.503937      -88.348961      -27.422979
 H         -34.308262      -86.768188      -26.942373
 H         -34.379375      -88.704330      -25.165138
 H         -32.603195      -88.769882      -25.289373
