20
 generated by VMD
 C         -11.963751      -25.918692       -0.103208
 N         -12.955109      -26.193661       -0.505634
 H          -9.798016      -26.802099       -3.098372
 H          -9.494674      -25.736631       -4.411817
 C          -9.016623      -26.258810       -3.600317
 C          -7.989301      -27.222641       -4.175166
 C          -8.341398      -25.065474       -2.807341
 C          -6.714189      -26.662048       -4.736274
 C          -7.137524      -24.451180       -3.531600
 C          -6.128810      -25.555990       -3.899469
 H          -8.516565      -27.868830       -4.940855
 H          -7.636056      -27.754320       -3.304090
 H          -9.106448      -24.252207       -2.648294
 H          -8.016822      -25.464312       -1.869909
 H          -7.033272      -26.215626       -5.669327
 H          -5.974914      -27.434391       -4.865669
 H          -6.659860      -23.649195       -2.979270
 H          -7.547948      -23.991310       -4.442696
 H          -5.248280      -25.082989       -4.393785
 H          -5.773556      -25.963984       -2.947746
