20
 generated by VMD
 C         -27.440619      -86.658249      -26.504717
 N         -28.462912      -86.119026      -26.771971
 H         -31.126028      -85.826401      -25.408180
 H         -26.417896      -86.999046      -26.230877
 C         -31.959911      -86.590080      -25.607315
 C         -32.818981      -87.303391      -24.501221
 C         -32.070587      -87.322807      -26.951635
 C         -34.278427      -87.435677      -24.903080
 C         -33.481133      -87.485077      -27.321239
 C         -34.254604      -88.166405      -26.241728
 H         -32.615158      -86.627609      -23.647890
 H         -32.386597      -88.279526      -24.230799
 H         -31.556696      -86.694664      -27.742155
 H         -31.518457      -88.254028      -26.958511
 H         -34.752007      -86.510544      -25.194635
 H         -34.830997      -88.125648      -24.273623
 H         -33.419174      -88.114098      -28.178308
 H         -33.962490      -86.475754      -27.591301
 H         -35.265354      -88.388962      -26.641651
 H         -33.941063      -89.161888      -25.876459
