20
 generated by VMD
 C         -56.356461     -149.841751      -46.499615
 N         -56.786755     -150.573883      -45.728638
 H         -53.167633     -147.828156      -47.696236
 H         -55.808979     -149.272797      -47.190979
 C         -53.652466     -147.360870      -48.606388
 C         -52.969193     -147.739624      -49.893593
 C         -54.662663     -146.279053      -48.542660
 C         -53.936600     -147.500122      -51.043568
 C         -55.190533     -145.944717      -49.880569
 C         -54.478718     -146.197617      -51.150661
 H         -52.652607     -148.827240      -49.763855
 H         -52.177284     -147.018829      -50.009548
 H         -55.582020     -146.651138      -48.106480
 H         -54.270939     -145.396500      -48.135712
 H         -54.683441     -148.318192      -51.010651
 H         -53.276680     -147.633820      -52.000507
 H         -55.426449     -144.805527      -50.009861
 H         -56.208286     -146.329987      -49.870712
 H         -55.037888     -146.147064      -52.065887
 H         -53.678177     -145.437927      -51.210651
