20
 generated by VMD
 C         -23.996008      -69.712982      -16.830988
 N         -24.326405      -70.031975      -15.775581
 H         -24.069813      -66.848595      -18.882030
 H         -23.564486      -69.415352      -17.715504
 C         -24.417068      -67.726349      -19.352757
 C         -23.887152      -68.504242      -20.486008
 C         -25.872753      -67.534378      -19.365253
 C         -24.643024      -69.738960      -20.966032
 C         -26.550678      -68.854248      -19.763880
 C         -26.157087      -69.476982      -21.043257
 H         -22.883711      -68.977150      -20.152481
 H         -23.712666      -67.827156      -21.399204
 H         -26.040863      -67.379654      -18.320038
 H         -26.157890      -66.798248      -19.988081
 H         -24.549074      -70.542465      -20.142857
 H         -24.324032      -70.258888      -21.883709
 H         -27.625353      -68.568436      -19.765003
 H         -26.329384      -69.523056      -18.873989
 H         -26.640699      -70.440147      -21.212759
 H         -26.329130      -68.859299      -21.934031
