20
 generated by VMD
 C         -49.978268     -143.556564      -44.432598
 N         -49.255836     -143.567429      -45.400806
 H         -52.121799     -141.829727      -45.447987
 H         -50.733704     -143.721588      -43.696346
 C         -52.748020     -141.669205      -46.348915
 C         -52.147419     -141.543137      -47.807579
 C         -54.159344     -141.227066      -46.246284
 C         -53.118988     -142.314697      -48.772781
 C         -55.115120     -141.854706      -47.218391
 C         -54.586475     -141.702164      -48.638912
 H         -51.128296     -141.930725      -47.863716
 H         -51.978321     -140.493744      -48.159286
 H         -54.651543     -141.181244      -45.288750
 H         -54.147049     -140.098618      -46.400497
 H         -53.000675     -143.301285      -48.573891
 H         -52.825497     -142.163376      -49.799004
 H         -56.087154     -141.394516      -47.286434
 H         -55.243576     -142.896942      -46.998493
 H         -55.264683     -142.314911      -49.165241
 H         -54.598335     -140.681458      -48.846832
