20
 generated by VMD
 C         -29.153328      -88.025848      -25.049723
 N         -28.803862      -87.825706      -26.115891
 H         -31.507277      -90.224121      -27.141699
 H         -29.427225      -88.335342      -24.066076
 C         -32.348152      -89.556938      -27.200266
 C         -32.765877      -89.220352      -25.786198
 C         -33.174561      -89.211617      -28.360294
 C         -33.657024      -88.033989      -25.584021
 C         -34.090370      -88.009499      -28.071871
 C         -34.702339      -87.899628      -26.667652
 H         -31.923550      -89.075264      -25.093231
 H         -33.285275      -90.126358      -25.394693
 H         -32.587688      -88.960594      -29.259865
 H         -33.720009      -90.176964      -28.476213
 H         -32.964581      -87.097679      -25.505457
 H         -34.301319      -88.085358      -24.627638
 H         -34.904770      -88.109215      -28.797064
 H         -33.471699      -87.171303      -28.320742
 H         -35.267216      -86.914429      -26.576473
 H         -35.526573      -88.649010      -26.488285
