20
 generated by VMD
 C         -50.318619     -129.416458      -43.109924
 N         -50.547970     -128.278549      -43.383884
 H         -48.527573     -127.949043      -39.862717
 H         -50.133766     -130.467102      -42.881760
 C         -47.542782     -127.900200      -40.354988
 C         -46.434891     -128.884171      -39.914272
 C         -47.271366     -126.631630      -40.983883
 C         -45.492275     -129.087585      -41.052643
 C         -46.225216     -126.767097      -42.167866
 C         -45.098045     -127.653992      -41.549156
 H         -46.800449     -129.831818      -39.479538
 H         -46.039047     -128.263733      -39.130936
 H         -48.277309     -126.139389      -41.388451
 H         -46.934875     -125.835236      -40.318268
 H         -46.051476     -129.556198      -41.842758
 H         -44.680958     -129.677475      -40.652359
 H         -45.931988     -125.738480      -42.542477
 H         -46.906651     -127.235970      -42.919155
 H         -44.373940     -127.708115      -42.359180
 H         -44.610397     -127.160545      -40.754642
