20
 generated by VMD
 C         -51.205349     -145.405807      -44.140656
 N         -51.233204     -146.433777      -44.775520
 H         -53.955547     -145.096298      -46.894108
 H         -51.379791     -144.539505      -43.540783
 C         -53.691784     -144.158951      -47.396351
 C         -52.685699     -144.062775      -48.587204
 C         -54.705662     -143.117661      -47.256924
 C         -53.416077     -143.813980      -49.916637
 C         -55.506893     -142.894760      -48.650345
 C         -54.426498     -142.614853      -49.759163
 H         -52.165501     -144.933243      -48.608135
 H         -52.043667     -143.214752      -48.350662
 H         -55.317593     -143.418533      -46.333050
 H         -54.170177     -142.199493      -47.099400
 H         -53.868908     -144.812881      -50.252991
 H         -52.517982     -143.610168      -50.586140
 H         -56.317253     -142.186066      -48.648804
 H         -56.150215     -143.822205      -48.792690
 H         -54.921593     -142.583023      -50.709660
 H         -54.026203     -141.714249      -49.577023
