20
 generated by VMD
 C         -41.006523     -104.326973      -36.274860
 N         -41.943176     -105.016022      -36.388149
 H         -38.248104     -104.507591      -33.712322
 H         -40.018353     -103.889648      -36.096138
 C         -38.314320     -105.388351      -33.024490
 C         -37.025574     -105.684555      -32.231766
 C         -39.404343     -106.406738      -33.371548
 C         -37.341930     -106.661057      -31.036274
 C         -39.456161     -107.443375      -32.298985
 C         -38.062302     -107.891113      -31.685423
 H         -36.579960     -104.720085      -31.903061
 H         -36.267479     -106.006287      -32.859303
 H         -40.405861     -105.858078      -33.437111
 H         -39.261219     -106.995438      -34.240028
 H         -37.779278     -106.072609      -30.145405
 H         -36.347126     -107.088684      -30.715866
 H         -39.866150     -108.442978      -32.726105
 H         -40.037159     -107.026550      -31.454996
 H         -38.191044     -108.727554      -31.002499
 H         -37.385357     -108.201340      -32.541912
