20
 generated by VMD
 C         -28.420286      -84.630653      -26.335468
 N         -28.060936      -83.807022      -27.040972
 H         -31.188135      -84.428986      -26.243692
 H         -28.808233      -85.389381      -25.663090
 C         -31.386309      -85.416550      -25.802040
 C         -31.468908      -85.660233      -24.292942
 C         -31.917372      -86.576881      -26.715504
 C         -32.913578      -86.136688      -23.909954
 C         -33.258541      -87.186592      -26.230665
 C         -33.360615      -87.290466      -24.700081
 H         -31.283682      -84.764893      -23.754005
 H         -30.865551      -86.524475      -23.981598
 H         -31.950180      -86.275398      -27.759682
 H         -31.092062      -87.270004      -26.658737
 H         -33.590225      -85.306221      -24.256674
 H         -32.999786      -86.309792      -22.856857
 H         -33.535225      -88.116203      -26.766562
 H         -34.173801      -86.441528      -26.344837
 H         -34.464100      -87.543091      -24.418982
 H         -32.736565      -88.218536      -24.437782
