20
 generated by VMD
 C         -79.742668     -207.021469      -73.560181
 N         -80.045555     -206.005630      -73.991867
 H         -78.224442     -205.189484      -70.601151
 H         -79.763138     -207.972748      -73.165878
 C         -77.206192     -205.357819      -70.182602
 C         -76.132645     -204.568909      -70.902382
 C         -76.847488     -206.705276      -69.589439
 C         -74.765709     -204.799271      -70.285713
 C         -75.404449     -206.861710      -69.228203
 C         -74.392265     -206.255005      -70.159668
 H         -76.227806     -203.483856      -71.062271
 H         -76.093712     -204.983368      -71.997322
 H         -77.398560     -207.029343      -68.709610
 H         -77.115059     -207.471817      -70.403831
 H         -74.690636     -204.329742      -69.276573
 H         -73.993752     -204.276855      -70.911583
 H         -75.299622     -208.028046      -69.027306
 H         -75.267548     -206.437195      -68.262764
 H         -73.343094     -206.331528      -69.828842
 H         -74.457085     -206.888046      -71.046318
