20
 generated by VMD
 C         -21.716625      -66.306465      -16.632469
 N         -20.860683      -66.830635      -16.004644
 H         -24.233727      -64.251228      -18.537540
 H         -22.350704      -65.925621      -17.338152
 C         -24.452608      -65.313637      -18.583195
 C         -24.415648      -65.717751      -20.010353
 C         -25.561771      -65.862015      -17.800947
 C         -24.284735      -67.277222      -20.052202
 C         -25.774292      -67.435562      -18.000998
 C         -25.486189      -67.920067      -19.395016
 H         -23.642122      -65.168869      -20.569689
 H         -25.299246      -65.401505      -20.522604
 H         -25.243818      -65.778175      -16.725229
 H         -26.468781      -65.220543      -17.968079
 H         -23.292048      -67.703636      -19.659779
 H         -24.338795      -67.475784      -21.186249
 H         -26.820341      -67.788368      -17.891453
 H         -25.189939      -68.010750      -17.229656
 H         -25.334703      -68.950539      -19.409342
 H         -26.368790      -67.689903      -20.051626
