20
 generated by VMD
 C         -60.278893     -170.589767      -55.189426
 N         -59.224514     -170.968369      -55.299362
 H         -63.306915     -170.536285      -56.551403
 H         -61.272007     -170.266998      -54.990162
 C         -63.471283     -169.542175      -57.007565
 C         -62.333157     -168.791397      -57.664459
 C         -64.581406     -168.845551      -56.356010
 C         -62.944778     -167.982834      -58.744209
 C         -65.201561     -168.027252      -57.453449
 C         -64.120361     -167.083069      -58.161022
 H         -61.628738     -169.532349      -58.048641
 H         -61.748085     -168.223724      -56.797001
 H         -65.360970     -169.456589      -56.030388
 H         -64.200859     -168.234924      -55.537918
 H         -63.357098     -168.664948      -59.529533
 H         -62.239731     -167.273102      -59.215714
 H         -66.041130     -167.411972      -57.003227
 H         -65.621994     -168.701981      -58.236439
 H         -64.704483     -166.572586      -59.007404
 H         -63.715042     -166.244812      -57.581718
