20
 generated by VMD
 C         -70.712860     -197.025696      -65.092476
 N         -69.858124     -197.607132      -65.643585
 H         -73.437996     -196.646942      -65.820290
 H         -71.376785     -196.341568      -64.606560
 C         -73.384628     -195.794128      -66.519028
 C         -72.964012     -194.459274      -66.260216
 C         -74.376289     -196.069992      -67.625137
 C         -72.608604     -193.571487      -67.468071
 C         -74.717537     -194.769180      -68.415283
 C         -73.475845     -193.876450      -68.648895
 H         -72.252350     -194.390961      -65.437515
 H         -73.768791     -193.845520      -65.644226
 H         -73.820755     -196.765732      -68.354317
 H         -75.278038     -196.638992      -67.332321
 H         -71.530701     -193.629074      -67.655556
 H         -72.751671     -192.551590      -67.151161
 H         -75.497711     -194.269638      -67.825951
 H         -75.118340     -194.959442      -69.432884
 H         -72.747490     -194.574585      -69.352921
 H         -73.566200     -192.997055      -69.181458
