20
 generated by VMD
 C         -31.340818      -77.625046      -26.097313
 N         -31.702360      -77.989227      -27.108843
 H         -29.279043      -79.149353      -24.172411
 H         -31.061472      -77.227936      -25.203094
 C         -28.940544      -79.735893      -23.304401
 C         -27.504658      -79.687538      -23.042381
 C         -29.849360      -80.638565      -22.649782
 C         -26.950176      -80.539238      -21.939201
 C         -29.284943      -81.443176      -21.539751
 C         -27.768143      -81.748940      -21.623516
 H         -27.345276      -78.611191      -22.967354
 H         -27.027262      -80.155975      -23.874250
 H         -30.716553      -79.933899      -22.334850
 H         -30.270060      -81.381088      -23.328045
 H         -26.905884      -79.983437      -21.048624
 H         -25.880579      -80.768127      -22.129524
 H         -29.912487      -82.417030      -21.575882
 H         -29.569761      -81.053017      -20.488119
 H         -27.380806      -82.183395      -20.686274
 H         -27.725698      -82.635086      -22.316463
