20
 generated by VMD
 C         -25.825079      -71.768951      -17.039829
 N         -26.626863      -72.436226      -16.577063
 H         -23.992138      -68.958488      -18.924801
 H         -24.905869      -71.234261      -17.520397
 C         -24.693642      -69.425308      -19.676435
 C         -24.151920      -70.660324      -20.356739
 C         -25.802267      -68.624435      -20.344908
 C         -25.167883      -71.542992      -21.186020
 C         -26.740582      -69.616096      -21.211584
 C         -25.935343      -70.677116      -22.144545
 H         -23.791426      -71.307655      -19.549730
 H         -23.357723      -70.520279      -21.155315
 H         -26.394827      -68.153427      -19.520752
 H         -25.393938      -67.854179      -20.928244
 H         -25.709778      -72.084145      -20.448025
 H         -24.563747      -72.356003      -21.729540
 H         -27.563251      -69.251831      -21.760149
 H         -27.322672      -70.211182      -20.545658
 H         -26.589012      -71.498688      -22.532827
 H         -25.382849      -70.147598      -22.969912
