20
 generated by VMD
 C         -48.265503     -133.579758      -47.394291
 N         -48.144024     -133.294312      -48.472908
 H         -49.329693     -134.163757      -44.284103
 H         -48.575001     -134.111725      -46.520813
 C         -49.959229     -134.928970      -43.804317
 C         -50.003956     -136.229813      -44.480732
 C         -50.881237     -134.559799      -42.655922
 C         -50.455868     -137.405411      -43.601139
 C         -51.314613     -135.782654      -41.778675
 C         -51.588402     -137.021469      -42.566788
 H         -49.067055     -136.524048      -45.078278
 H         -50.786434     -136.198486      -45.189621
 H         -50.446987     -133.863937      -41.933369
 H         -51.751305     -134.051147      -43.040466
 H         -49.561913     -137.686691      -43.032848
 H         -50.871624     -138.255798      -44.149368
 H         -52.091450     -135.254074      -41.189980
 H         -50.426533     -135.970795      -41.144341
 H         -51.962173     -137.823853      -41.909451
 H         -52.626289     -136.849609      -43.148468
