20
 generated by VMD
 C         -58.360115     -159.017151      -58.053150
 N         -59.242023     -159.102905      -57.221161
 H         -58.983025     -160.454620      -54.825119
 H         -57.595470     -158.901123      -58.845592
 C         -59.464779     -160.737595      -53.935406
 C         -58.570393     -161.056000      -52.741539
 C         -60.660496     -161.685349      -54.093891
 C         -59.420944     -161.256485      -51.487267
 C         -61.489059     -161.809509      -52.768837
 C         -60.674820     -162.160797      -51.502865
 H         -57.869198     -160.267914      -52.693325
 H         -58.188221     -162.107880      -52.927563
 H         -61.401276     -161.356003      -54.903278
 H         -60.343376     -162.746780      -54.404102
 H         -59.717045     -160.264587      -51.109642
 H         -58.648029     -161.417282      -50.688969
 H         -62.280525     -162.535004      -52.921570
 H         -62.065990     -160.881836      -52.610027
 H         -61.197941     -162.039597      -50.590652
 H         -60.290527     -163.173447      -51.516842
