20
 generated by VMD
 C         -38.393906     -115.171028      -35.447277
 N         -39.205383     -115.283012      -34.636417
 H         -41.497631     -115.862144      -36.792850
 H         -37.570534     -114.925819      -36.177681
 C         -42.422821     -115.464745      -37.071415
 C         -42.945915     -115.297310      -38.536167
 C         -43.439190     -115.284233      -35.964291
 C         -44.184322     -116.160530      -38.760994
 C         -44.742264     -116.041313      -36.338799
 C         -45.269913     -115.693359      -37.700188
 H         -42.173676     -115.470749      -39.365471
 H         -43.300816     -114.231560      -38.692303
 H         -42.892281     -115.654602      -34.976791
 H         -43.738033     -114.170746      -36.014641
 H         -43.998932     -117.251503      -38.628281
 H         -44.435539     -116.066330      -39.784702
 H         -45.404301     -115.697212      -35.472324
 H         -44.480736     -117.159508      -36.269196
 H         -46.104473     -116.195129      -38.003277
 H         -45.591423     -114.598846      -38.027397
