20
 generated by VMD
 C         -78.652618     -210.161423      -76.486931
 N         -77.628349     -210.345398      -76.919121
 H         -79.633514     -212.069153      -74.649429
 H         -79.661613     -209.891434      -76.025307
 C         -79.553162     -212.317734      -73.604149
 C         -78.219986     -212.406784      -72.890373
 C         -80.784355     -213.089554      -73.143753
 C         -78.348869     -212.702072      -71.389420
 C         -80.830933     -213.458633      -71.640839
 C         -79.428993     -213.894791      -71.155083
 H         -77.568352     -211.540421      -73.057564
 H         -77.675285     -213.263901      -73.420227
 H         -81.709030     -212.521576      -73.313950
 H         -80.811249     -214.019318      -73.784477
 H         -78.675438     -211.761795      -70.966850
 H         -77.364876     -212.985077      -70.995567
 H         -81.318268     -214.496155      -71.786667
 H         -81.367943     -212.848221      -70.980972
 H         -79.470505     -214.243866      -70.054970
 H         -79.117188     -214.682083      -71.940712
