20
 generated by VMD
 C         -34.272812      -97.167099      -26.460602
 N         -34.749065      -97.311501      -25.432741
 H         -35.270550      -94.311874      -27.425383
 H         -33.820202      -97.230568      -27.526787
 C         -35.159252      -94.129326      -28.497601
 C         -36.089756      -94.774414      -29.523861
 C         -33.779911      -93.619507      -28.957420
 C         -35.898842      -94.340004      -30.993301
 C         -33.766212      -93.127388      -30.443727
 C         -34.441200      -94.083076      -31.349112
 H         -37.110477      -94.690956      -29.275776
 H         -35.875896      -95.857468      -29.536640
 H         -33.634521      -92.855217      -28.199869
 H         -33.013107      -94.358673      -28.717684
 H         -36.409817      -93.448105      -30.910860
 H         -36.470272      -95.010284      -31.682898
 H         -32.764992      -93.128464      -30.781973
 H         -34.212311      -92.127121      -30.649420
 H         -34.453758      -93.701141      -32.431690
 H         -33.980614      -95.017136      -31.242016
