20
 generated by VMD
 C         -70.161026     -198.570465      -64.209816
 N         -69.976868     -198.262360      -65.318222
 H         -72.808716     -196.572311      -66.430016
 H         -70.403587     -199.004700      -63.223900
 C         -73.511658     -195.886658      -66.961494
 C         -73.253510     -194.462753      -66.490891
 C         -74.382034     -196.254883      -68.059914
 C         -73.198997     -193.367523      -67.689896
 C         -74.889275     -194.865326      -68.806129
 C         -73.655319     -193.914398      -69.018875
 H         -72.317764     -194.362244      -65.921501
 H         -74.233406     -194.177612      -65.970055
 H         -73.778931     -196.818237      -68.778442
 H         -75.186035     -196.752686      -67.598450
 H         -72.154747     -193.045074      -67.838943
 H         -73.724434     -192.448380      -67.462265
 H         -75.707016     -194.416183      -68.236443
 H         -75.317802     -195.313568      -69.764236
 H         -72.786598     -194.561050      -69.477203
 H         -73.913635     -193.210083      -69.722481
