20
 generated by VMD
 C         -13.579522      -44.071358       -6.745965
 N         -13.690358      -43.914185       -5.637158
 H         -14.750995      -44.751354       -9.136230
 H         -14.394726      -43.807240      -10.548412
 C         -15.219070      -44.410698      -10.033981
 C         -16.434685      -43.463608       -9.673604
 C         -15.656757      -45.512630      -10.963528
 C         -16.958401      -42.900471      -10.996300
 C         -16.032736      -45.068691      -12.350904
 C         -17.119938      -43.991844      -12.084723
 H         -16.135048      -42.622955       -9.096146
 H         -17.172497      -44.009087       -9.098007
 H         -14.870057      -46.277039      -10.955251
 H         -16.484806      -46.066586      -10.494084
 H         -16.222546      -42.143852      -11.301770
 H         -17.912506      -42.391445      -10.806224
 H         -16.420151      -45.819515      -12.954748
 H         -15.118230      -44.681511      -12.889703
 H         -17.358955      -43.596447      -13.093050
 H         -18.064457      -44.568958      -11.781684
