20
 generated by VMD
 C         -69.829002     -183.265701      -65.280197
 N         -69.728912     -182.384659      -66.006012
 H         -67.834900     -184.933426      -62.947392
 H         -69.928665     -184.101624      -64.621834
 C         -67.848785     -184.133667      -62.223331
 C         -67.989624     -184.530533      -60.737167
 C         -67.989235     -182.723557      -62.654869
 C         -67.180756     -183.503738      -59.924309
 C         -67.086128     -181.817566      -61.737198
 C         -67.413773     -181.970535      -60.225403
 H         -67.632538     -185.533859      -60.736340
 H         -69.017906     -184.301147      -60.454903
 H         -67.692429     -182.767639      -63.781902
 H         -68.965538     -182.266235      -62.667423
 H         -66.078278     -183.750504      -59.971085
 H         -67.540573     -183.686066      -58.808681
 H         -67.142586     -180.842728      -62.242268
 H         -66.000862     -182.064117      -61.800869
 H         -66.839714     -181.542435      -59.367790
 H         -68.457718     -181.888809      -60.106911
