20
 generated by VMD
 C          -1.381650      -10.537036        1.318632
 N          -0.879962      -11.499060        1.397196
 H          -3.702561      -13.277115        0.150255
 H          -5.259847      -12.675752        0.889922
 C          -4.574682      -13.550613        0.769311
 C          -3.850090      -13.865166        2.077591
 C          -5.357451      -14.770891        0.245394
 C          -4.772132      -14.499058        3.085767
 C          -6.337108      -15.336620        1.345104
 C          -5.532808      -15.720315        2.604464
 H          -3.401639      -12.923773        2.536633
 H          -2.935614      -14.448764        1.933140
 H          -6.033413      -14.403203       -0.570834
 H          -4.683164      -15.600800       -0.101958
 H          -5.418038      -13.693291        3.354136
 H          -4.221253      -14.707191        4.015263
 H          -7.062433      -16.046782        0.924091
 H          -6.908327      -14.441614        1.574441
 H          -6.219504      -16.076618        3.373299
 H          -4.855007      -16.560520        2.332080
