20
 generated by VMD
 C         -47.662403     -136.626495      -45.927998
 N         -46.927677     -136.078476      -46.639740
 H         -50.981689     -135.551498      -45.626736
 H         -48.385986     -137.154068      -45.299599
 C         -51.569027     -136.363739      -45.270027
 C         -52.085655     -137.480896      -46.136684
 C         -51.896854     -136.290176      -43.860062
 C         -52.049095     -138.833130      -45.442169
 C         -51.750835     -137.695770      -43.174591
 C         -52.431923     -138.754715      -43.977512
 H         -51.479370     -137.610672      -47.090263
 H         -53.055679     -137.245407      -46.484818
 H         -51.188572     -135.660950      -43.382404
 H         -52.897266     -135.836090      -43.671104
 H         -50.980976     -139.114777      -45.347969
 H         -52.599045     -139.555496      -46.000881
 H         -52.347065     -137.590454      -42.233044
 H         -50.721817     -137.917023      -42.963387
 H         -52.015251     -139.597443      -43.505791
 H         -53.468147     -138.447983      -43.822239
