20
 generated by VMD
 C         -48.227806     -140.511124      -45.587711
 N         -47.127701     -140.224182      -45.550434
 H         -51.198795     -138.734955      -45.418869
 H         -49.272751     -140.858704      -45.690571
 C         -52.061161     -139.150223      -45.894691
 C         -52.408485     -139.392227      -47.323841
 C         -53.077557     -139.480560      -44.891644
 C         -53.281830     -140.622116      -47.532146
 C         -54.035507     -140.641327      -45.202759
 C         -54.506306     -140.537674      -46.717377
 H         -51.500431     -139.378952      -47.996849
 H         -52.986519     -138.533234      -47.735783
 H         -52.539288     -139.852264      -43.948055
 H         -53.568146     -138.516663      -44.552769
 H         -52.760712     -141.531357      -47.246372
 H         -53.445042     -140.674530      -48.609272
 H         -54.884537     -140.562622      -44.561226
 H         -53.411537     -141.574722      -44.929012
 H         -55.121178     -141.308304      -46.990593
 H         -54.966053     -139.634598      -46.697887
