20
 generated by VMD
 C         -31.232027      -75.721382      -21.637981
 N         -32.190994      -75.232040      -21.197762
 H         -27.800592      -74.938881      -20.186888
 H         -30.247091      -76.113747      -21.464350
 C         -26.808378      -75.073074      -20.542774
 C         -26.363686      -76.254463      -21.365931
 C         -25.839401      -73.987022      -20.365189
 C         -26.022884      -75.824776      -22.661854
 C         -25.329250      -73.541916      -21.750591
 C         -24.903749      -74.757843      -22.642471
 H         -27.304819      -77.050911      -21.381079
 H         -25.602127      -76.931458      -20.931086
 H         -26.350136      -73.241669      -19.864456
 H         -24.999350      -74.468544      -19.834595
 H         -26.844568      -75.469017      -23.284351
 H         -25.594864      -76.681755      -23.212122
 H         -24.567696      -72.784714      -21.755035
 H         -26.131306      -73.024490      -22.239985
 H         -24.726732      -74.374451      -23.685925
 H         -24.040316      -75.175339      -22.112541
