20
 generated by VMD
 C         -65.142586     -175.912323      -55.839222
 N         -64.928764     -177.053574      -55.826653
 H         -64.654213     -174.646667      -58.768757
 H         -65.398071     -174.868256      -55.778229
 C         -64.549248     -173.702332      -59.182915
 C         -65.311241     -172.506104      -58.586945
 C         -63.766815     -173.350372      -60.530567
 C         -64.552406     -171.214661      -58.555885
 C         -63.160362     -171.876816      -60.448513
 C         -64.022331     -170.797150      -59.866016
 H         -65.567673     -172.722168      -57.462536
 H         -66.216164     -172.195099      -59.128769
 H         -63.081665     -174.229919      -60.780968
 H         -64.629150     -173.334091      -61.327629
 H         -63.704540     -171.325928      -57.957008
 H         -65.092125     -170.471024      -58.024063
 H         -62.782303     -171.503006      -61.459637
 H         -62.326694     -172.009491      -59.752117
 H         -63.392841     -169.865005      -59.797646
 H         -64.799683     -170.572067      -60.603138
