20
 generated by VMD
 C         -25.845045      -71.231468      -17.108063
 N         -25.637226      -71.664207      -16.042124
 H         -24.173819      -69.121895      -18.546043
 H         -25.811661      -70.868446      -18.100670
 C         -24.650831      -69.176910      -19.524281
 C         -23.893799      -70.019936      -20.564331
 C         -25.815010      -68.374397      -20.050566
 C         -24.903152      -71.149040      -21.355461
 C         -26.767120      -69.346527      -20.664669
 C         -26.039555      -70.206207      -21.819386
 H         -23.086906      -70.580391      -20.103022
 H         -23.359173      -69.543159      -21.377844
 H         -26.250652      -67.943054      -19.177927
 H         -25.361916      -67.709991      -20.848810
 H         -25.191450      -71.947510      -20.609653
 H         -24.414526      -71.698555      -22.134378
 H         -27.534143      -68.839905      -21.239546
 H         -27.139307      -69.983368      -19.882912
 H         -26.852898      -70.905647      -22.233986
 H         -25.717945      -69.407600      -22.569561
