20
 generated by VMD
 C         -38.633556     -108.689835      -36.713715
 N         -37.460823     -108.779984      -36.836586
 H         -41.413769     -109.367821      -36.071457
 H         -39.701027     -108.470390      -36.622822
 C         -41.805107     -110.287804      -35.507984
 C         -41.185661     -111.670670      -35.705196
 C         -42.611069     -110.118591      -34.293831
 C         -40.531654     -112.304176      -34.503735
 C         -41.950001     -110.626266      -32.994236
 C         -41.559898     -112.163467      -33.250504
 H         -40.424610     -111.503006      -36.436108
 H         -41.929707     -112.249886      -36.272453
 H         -42.848907     -109.074890      -34.322861
 H         -43.575256     -110.596764      -34.500557
 H         -39.634888     -111.778122      -34.148438
 H         -40.260063     -113.366966      -34.799366
 H         -42.579777     -110.564056      -32.148502
 H         -41.092194     -109.994141      -32.845680
 H         -41.109013     -112.593765      -32.231400
 H         -42.477402     -112.721481      -33.461029
