20
 generated by VMD
 C         -19.274424      -62.576355      -17.367937
 N         -20.227932      -62.516830      -16.730637
 H         -22.316566      -64.444542      -16.804317
 H         -18.511721      -62.821426      -17.981289
 C         -23.310335      -64.517609      -17.191275
 C         -23.684425      -64.100143      -18.531233
 C         -24.390467      -65.098587      -16.273615
 C         -24.602331      -65.146004      -19.140333
 C         -25.126072      -66.296494      -16.856396
 C         -25.688395      -65.778877      -18.245636
 H         -22.948759      -63.707066      -19.326471
 H         -24.313028      -63.142624      -18.403893
 H         -23.917868      -65.499054      -15.340935
 H         -25.005219      -64.273392      -16.069790
 H         -23.982788      -65.996544      -19.452765
 H         -25.138237      -64.809128      -20.021626
 H         -25.831322      -66.838341      -16.181417
 H         -24.427832      -67.076408      -17.196129
 H         -26.089064      -66.731613      -18.727871
 H         -26.498278      -65.091560      -18.110899
