20
 generated by VMD
 C         -79.572815     -206.570251      -75.111336
 N         -79.931839     -206.228165      -74.033150
 H         -78.604286     -206.548630      -71.282082
 H         -79.158760     -206.979507      -76.048355
 C         -77.593468     -206.737869      -70.735626
 C         -76.499519     -205.985977      -71.330170
 C         -77.271858     -208.080719      -70.161858
 C         -75.233330     -205.874390      -70.416687
 C         -76.168427     -207.972763      -69.113831
 C         -74.941536     -207.262482      -69.729797
 H         -76.976784     -204.980667      -71.413834
 H         -76.101006     -206.183792      -72.372536
 H         -78.076988     -208.538910      -69.585960
 H         -76.989029     -208.866669      -70.888184
 H         -75.419983     -205.280838      -69.548248
 H         -74.420921     -205.446869      -70.928719
 H         -75.881554     -208.953537      -68.839630
 H         -76.598289     -207.382004      -68.253494
 H         -74.253143     -207.129242      -68.829727
 H         -74.533676     -207.986984      -70.428658
