20
 generated by VMD
 C         -59.504482     -169.226181      -55.788525
 N         -59.692421     -168.565567      -54.838898
 H         -62.895859     -170.153107      -56.256420
 H         -59.307915     -169.689575      -56.742088
 C         -62.982086     -169.092621      -56.572739
 C         -62.840366     -168.836990      -58.006630
 C         -63.269508     -167.981812      -55.611351
 C         -63.551220     -167.645859      -58.595242
 C         -64.098114     -166.853134      -56.141613
 C         -63.604244     -166.474609      -57.596962
 H         -63.213982     -169.619247      -58.563980
 H         -61.671169     -168.724335      -58.250977
 H         -63.763973     -168.551926      -54.855492
 H         -62.348682     -167.667526      -55.219410
 H         -64.597610     -167.865204      -58.838089
 H         -63.021252     -167.321030      -59.515598
 H         -63.918419     -165.964798      -55.399265
 H         -65.222656     -166.922714      -56.337685
 H         -64.215202     -165.733215      -57.991619
 H         -62.637302     -166.092529      -57.358318
