20
 generated by VMD
 C         -78.206810     -204.272491      -69.405693
 N         -79.039978     -203.761581      -70.001678
 H         -75.984909     -202.685455      -67.900887
 H         -77.395027     -204.793808      -68.914726
 C         -75.300140     -202.335831      -68.609543
 C         -75.600868     -200.946930      -69.207542
 C         -74.139565     -203.165115      -68.973862
 C         -74.866028     -200.846390      -70.631714
 C         -73.049507     -202.298721      -69.493355
 C         -73.433891     -201.232742      -70.484215
 H         -75.173271     -200.127548      -68.552032
 H         -76.640991     -200.834061      -69.276367
 H         -73.799538     -203.673584      -68.049393
 H         -74.517479     -203.854568      -69.742920
 H         -74.983330     -199.869629      -71.152443
 H         -75.391693     -201.540253      -71.346619
 H         -72.303185     -202.942322      -70.012756
 H         -72.395546     -201.933334      -68.699471
 H         -72.940254     -200.384674      -70.076355
 H         -72.910080     -201.408722      -71.465279
