20
 generated by VMD
 C         -38.622501      -98.858040      -27.551353
 N         -37.947540      -99.427284      -26.772255
 H         -37.290916      -97.698235      -30.554388
 H         -39.192993      -98.239235      -28.148964
 C         -36.291912      -97.270210      -30.643969
 C         -35.510300      -97.835411      -31.765768
 C         -35.510735      -96.593613      -29.462259
 C         -34.481228      -96.797569      -32.249218
 C         -34.278503      -95.768692      -30.031315
 C         -33.463295      -96.531578      -31.063269
 H         -36.323856      -98.087997      -32.514252
 H         -35.071037      -98.795105      -31.411057
 H         -36.130489      -95.808769      -28.925798
 H         -35.191235      -97.410606      -28.783968
 H         -34.875202      -95.810631      -32.433060
 H         -33.864513      -97.254440      -33.016037
 H         -33.613289      -95.520027      -29.146523
 H         -34.634876      -94.818916      -30.470699
 H         -32.698875      -95.938362      -31.494219
 H         -32.914558      -97.503792      -30.662411
