20
 generated by VMD
 C          -3.436326      -19.827515        3.455715
 N          -3.873296      -18.872364        3.078444
 H          -5.420322      -19.874943        0.027872
 H          -6.101136      -21.168316       -0.839797
 C          -6.117405      -20.066679       -0.793808
 C          -5.620175      -19.488131       -2.144024
 C          -7.498600      -19.658838       -0.305184
 C          -6.786653      -19.541451       -3.152106
 C          -8.558978      -19.551504       -1.329932
 C          -8.021255      -18.879530       -2.588669
 H          -4.729911      -20.116697       -2.442254
 H          -5.327678      -18.444454       -1.998869
 H          -7.819954      -20.466064        0.345485
 H          -7.412450      -18.658577        0.140530
 H          -6.985662      -20.630043       -3.248484
 H          -6.598876      -19.145657       -4.195010
 H          -9.488875      -19.004520       -1.017154
 H          -8.881850      -20.538946       -1.679862
 H          -8.867044      -18.850876       -3.272341
 H          -7.721222      -17.853422       -2.302254
