20
 generated by VMD
 C         -68.579216     -186.229263      -67.837494
 N         -68.271606     -187.299149      -67.519005
 H         -68.269966     -187.813019      -64.235199
 H         -68.895836     -185.186249      -68.024544
 C         -69.132622     -187.593231      -63.657803
 C         -68.973915     -187.316406      -62.258984
 C         -70.470329     -187.515747      -64.322906
 C         -69.856255     -188.082886      -61.411346
 C         -71.585129     -187.976151      -63.367039
 C         -71.356468     -187.816757      -61.799038
 H         -69.100784     -186.175064      -62.327000
 H         -67.913734     -187.585724      -62.022259
 H         -70.711998     -186.527344      -64.637947
 H         -70.475655     -188.256241      -65.166702
 H         -69.565651     -187.938110      -60.374538
 H         -69.816490     -189.191925      -61.565201
 H         -71.816811     -189.084717      -63.600601
 H         -72.534920     -187.449570      -63.692173
 H         -71.640533     -186.834137      -61.452351
 H         -72.024208     -188.453781      -61.306656
