20
 generated by VMD
 C         -21.576735      -65.520988      -17.114523
 N         -20.873667      -65.990547      -16.318857
 H         -24.026617      -63.681713      -18.157677
 H         -22.332510      -65.498230      -18.035851
 C         -24.268034      -64.809570      -18.212074
 C         -24.565422      -65.139664      -19.687243
 C         -25.273777      -65.535583      -17.326866
 C         -24.261089      -66.633453      -19.885029
 C         -24.932526      -67.021942      -17.436197
 C         -25.134405      -67.587257      -18.905262
 H         -23.944307      -64.633324      -20.340536
 H         -25.617632      -64.977638      -19.997385
 H         -25.167814      -65.153755      -16.187229
 H         -26.348364      -65.199097      -17.605473
 H         -23.213249      -66.988396      -19.723579
 H         -24.572990      -66.863480      -20.912767
 H         -25.611423      -67.684601      -16.877636
 H         -23.945032      -67.234383      -17.068769
 H         -24.876966      -68.651901      -18.920639
 H         -26.174421      -67.428200      -19.062658
