20
 generated by VMD
 C         -49.203758     -133.067245      -47.048100
 N         -48.253284     -133.100800      -47.803196
 H         -48.514019     -134.464859      -43.896656
 H         -50.037472     -132.838455      -46.408798
 C         -49.516781     -134.873337      -43.929859
 C         -49.740589     -136.333603      -44.366486
 C         -50.458866     -134.195358      -43.011902
 C         -50.193935     -137.131287      -43.227825
 C         -50.964821     -135.116425      -41.928253
 C         -51.365177     -136.462341      -42.465836
 H         -48.779461     -136.614487      -44.841213
 H         -50.446609     -136.295319      -45.140629
 H         -49.906185     -133.242722      -42.601746
 H         -51.243046     -133.818817      -43.662605
 H         -49.272354     -137.293777      -42.647282
 H         -50.624718     -138.109558      -43.641361
 H         -51.772644     -134.649521      -41.393658
 H         -50.261589     -135.425125      -41.162102
 H         -51.951309     -137.232483      -41.799065
 H         -52.199554     -136.331741      -43.180248
