20
 generated by VMD
 C         -38.356186     -112.840187      -36.278358
 N         -37.268833     -112.537796      -36.505150
 H         -41.284264     -114.815521      -34.699352
 H         -39.309223     -113.216827      -35.966267
 C         -42.135628     -114.656380      -35.344883
 C         -42.090225     -114.747955      -36.793987
 C         -43.418373     -113.998619      -34.861259
 C         -43.444286     -114.854744      -37.587807
 C         -44.683758     -114.348770      -35.523941
 C         -44.470741     -113.976730      -36.971539
 H         -41.558792     -115.509964      -37.284260
 H         -41.546604     -113.925041      -37.281040
 H         -43.353062     -114.339905      -33.830376
 H         -43.274246     -112.936714      -34.644924
 H         -43.803406     -115.926804      -37.618668
 H         -43.275120     -114.582794      -38.640751
 H         -45.664989     -113.835716      -35.285282
 H         -44.897202     -115.458992      -35.268639
 H         -45.429081     -114.064880      -37.649040
 H         -44.057087     -112.974052      -37.071556
