20
 generated by VMD
 C         -52.814892     -147.264526      -45.408001
 N         -53.945431     -147.372818      -45.160454
 H         -55.086967     -147.553925      -48.610748
 H         -51.794155     -147.031708      -45.575958
 C         -54.624378     -146.534622      -48.689613
 C         -53.256557     -146.424362      -49.333931
 C         -55.111382     -145.306778      -47.925083
 C         -53.325031     -145.190750      -50.391300
 C         -55.251301     -144.122711      -48.964867
 C         -53.839458     -143.834473      -49.744938
 H         -53.100491     -147.283157      -49.940887
 H         -52.381184     -146.264954      -48.630501
 H         -56.053242     -145.437302      -47.481457
 H         -54.307949     -145.003540      -47.218498
 H         -53.918755     -145.483612      -51.148979
 H         -52.418045     -144.940338      -50.874870
 H         -55.477844     -143.237015      -48.443604
 H         -56.179020     -144.307648      -49.667961
 H         -54.049030     -143.076294      -50.537922
 H         -53.232967     -143.474152      -48.901707
