20
 generated by VMD
 C         -70.582108     -196.685287      -65.738358
 N         -69.461372     -196.598465      -65.983955
 H         -73.599365     -195.588974      -64.845787
 H         -71.574669     -196.547440      -65.435402
 C         -73.431435     -195.130707      -65.818947
 C         -72.771439     -193.791290      -65.924667
 C         -74.520767     -195.396774      -66.913765
 C         -72.554123     -193.224915      -67.336868
 C         -73.941399     -195.225449      -68.275696
 C         -73.518280     -193.690689      -68.420464
 H         -71.722900     -193.877258      -65.462570
 H         -73.396233     -193.122925      -65.486305
 H         -74.988037     -196.330887      -66.692810
 H         -75.261696     -194.633514      -66.671234
 H         -71.576561     -193.563461      -67.593918
 H         -72.569550     -192.135483      -67.243118
 H         -74.699570     -195.503525      -68.968185
 H         -73.008156     -195.848358      -68.411110
 H         -73.070610     -193.428467      -69.325882
 H         -74.385933     -192.884186      -68.242409
