20
 generated by VMD
 C         -11.743337      -25.862577       -0.894983
 N         -11.846398      -25.159800       -0.018538
 H          -8.191466      -26.432592       -1.416438
 H          -9.113924      -25.631224       -2.719818
 C          -8.116279      -25.822931       -2.290151
 C          -7.373538      -26.599094       -3.357427
 C          -7.500762      -24.384974       -2.107150
 C          -7.327932      -25.861933       -4.649963
 C          -7.432474      -23.649530       -3.446822
 C          -6.803855      -24.429792       -4.605014
 H          -7.746410      -27.604794       -3.465955
 H          -6.365563      -26.850800       -3.003107
 H          -7.984217      -23.753334       -1.355951
 H          -6.465821      -24.485300       -1.770962
 H          -8.371436      -25.882450       -4.948349
 H          -6.891994      -26.409761       -5.475139
 H          -6.871316      -22.726683       -3.318791
 H          -8.440449      -23.361347       -3.736644
 H          -6.814502      -23.859419       -5.546357
 H          -5.718552      -24.580399       -4.430346
