20
 generated by VMD
 C         -10.626712      -36.181839       -8.789012
 N         -10.703873      -36.655579       -7.804688
 H         -13.219298      -37.256306       -7.182430
 H         -14.471164      -37.970360       -6.179540
 C         -13.955306      -38.115429       -7.103354
 C         -13.066964      -39.401768       -7.179232
 C         -15.060201      -38.168697       -8.235526
 C         -13.854095      -40.735088       -7.148232
 C         -15.872995      -39.485992       -8.180538
 C         -14.994457      -40.747051       -8.187623
 H         -12.280818      -39.389809       -6.388676
 H         -12.615374      -39.425350       -8.209099
 H         -15.729025      -37.286697       -8.198911
 H         -14.534817      -38.265755       -9.268155
 H         -14.336631      -40.796452       -6.139639
 H         -13.126016      -41.558468       -7.375779
 H         -16.583347      -39.497341       -8.975926
 H         -16.432085      -39.412582       -7.222496
 H         -15.592041      -41.653515       -8.033483
 H         -14.573641      -40.840008       -9.239092
