20
 generated by VMD
 C         -60.079575     -157.395050      -56.319370
 N         -59.495670     -158.324448      -56.528904
 H         -59.893265     -157.424866      -53.364372
 H         -60.607548     -156.499924      -56.178341
 C         -59.491791     -158.282272      -52.830513
 C         -58.131535     -158.061890      -52.339363
 C         -59.840145     -159.601654      -53.184116
 C         -57.813957     -158.868973      -51.136440
 C         -59.382710     -160.545853      -52.042488
 C         -57.952049     -160.345978      -51.540955
 H         -58.040676     -157.022461      -52.000839
 H         -57.344616     -158.102280      -53.118542
 H         -60.877708     -159.688141      -53.143791
 H         -59.328793     -159.953857      -54.092312
 H         -58.520634     -158.870544      -50.337246
 H         -56.884098     -158.602310      -50.764969
 H         -59.596672     -161.481934      -52.525574
 H         -59.993690     -160.485062      -51.184158
 H         -57.714367     -160.993576      -50.677078
 H         -57.250973     -160.733398      -52.292191
