20
 generated by VMD
 C         -59.308094     -158.316544      -56.248161
 N         -58.798512     -158.564133      -57.245010
 H         -60.656277     -157.991150      -52.915546
 H         -59.758396     -158.038284      -55.301685
 C         -60.040695     -158.843964      -53.016430
 C         -58.597630     -158.828735      -52.663975
 C         -60.601711     -160.233093      -53.248020
 C         -58.075989     -159.806641      -51.588562
 C         -60.139259     -161.207123      -52.238163
 C         -58.672699     -161.179321      -51.824284
 H         -58.181911     -157.809418      -52.415760
 H         -57.986542     -159.001984      -53.537971
 H         -61.768467     -160.192261      -53.290642
 H         -60.258583     -160.551666      -54.258610
 H         -58.530014     -159.516769      -50.644485
 H         -56.982311     -159.654816      -51.517117
 H         -60.402588     -162.183777      -52.765453
 H         -60.685265     -161.251984      -51.271130
 H         -58.535721     -161.705353      -50.914978
 H         -58.155056     -161.659271      -52.638901
