20
 generated by VMD
 C         -68.349678     -192.870316      -66.222130
 N         -68.485420     -193.187027      -67.324860
 H         -70.185699     -189.565872      -65.396851
 H         -67.928604     -192.637268      -65.203720
 C         -71.000732     -190.257370      -65.235794
 C         -71.546494     -190.898712      -66.429291
 C         -71.567726     -190.435013      -63.897346
 C         -72.609940     -192.035553      -66.019394
 C         -73.073051     -190.487564      -63.996872
 C         -73.598373     -191.562393      -64.948044
 H         -70.655952     -191.369598      -67.001450
 H         -71.955124     -190.104370      -67.024338
 H         -71.199165     -191.419250      -63.536388
 H         -71.313507     -189.580872      -63.288506
 H         -72.036240     -192.914520      -65.813805
 H         -73.130409     -192.425201      -66.875343
 H         -73.533226     -189.509308      -64.227386
 H         -73.517677     -190.802124      -62.988380
 H         -73.868904     -192.385101      -64.366425
 H         -74.522575     -191.278946      -65.683098
