20
 generated by VMD
 C         -12.331349      -32.204292       -8.603664
 N         -12.748101      -31.297173       -9.070098
 H         -10.499999      -34.319939       -7.265340
 H         -11.391256      -33.650467       -5.885432
 C         -11.130005      -34.635780       -6.349091
 C         -10.338661      -35.418808       -5.268408
 C         -12.409673      -35.284809       -6.844612
 C         -11.291568      -35.691460       -4.064608
 C         -13.249888      -35.607838       -5.672118
 C         -12.614720      -36.396954       -4.513988
 H          -9.430714      -34.871582       -5.041601
 H         -10.083003      -36.428493       -5.681431
 H         -12.855268      -34.641151       -7.597314
 H         -12.144365      -36.195641       -7.385660
 H         -11.518259      -34.704784       -3.632056
 H         -10.825336      -36.296429       -3.306985
 H         -14.099504      -36.213707       -6.050497
 H         -13.684501      -34.723354       -5.189677
 H         -13.314590      -36.389160       -3.730684
 H         -12.438395      -37.453106       -4.766159
