20
 generated by VMD
 C         -70.798363     -181.664185      -64.149139
 N         -70.026367     -182.430725      -63.678432
 H         -68.451157     -181.052307      -61.428989
 H         -71.515984     -180.994827      -64.568787
 C         -67.515259     -180.665771      -60.978008
 C         -66.627205     -181.798035      -60.611004
 C         -67.373718     -179.373459      -60.460758
 C         -65.205193     -181.409943      -60.804924
 C         -65.902229     -178.972855      -60.854721
 C         -64.919518     -180.037888      -60.341457
 H         -67.066078     -182.654572      -61.231159
 H         -66.884392     -182.156189      -59.531242
 H         -68.145683     -178.737350      -60.787258
 H         -67.416313     -179.252396      -59.425285
 H         -65.023193     -181.491745      -61.847649
 H         -64.552956     -182.053177      -60.172844
 H         -65.639351     -178.032532      -60.350525
 H         -65.685837     -178.880447      -61.913551
 H         -63.932072     -179.627533      -60.760735
 H         -64.758751     -180.092422      -59.233543
