20
 generated by VMD
 C          -1.112120      -13.314868        0.900570
 N          -0.410706      -13.103548        0.045971
 H          -4.467584      -13.144407        1.812219
 H          -5.759253      -13.366902        0.580878
 C          -5.198712      -13.839749        1.441931
 C          -6.124514      -14.358370        2.542520
 C          -4.348477      -15.038599        0.885583
 C          -7.020252      -15.490425        2.090145
 C          -5.207035      -16.170097        0.488800
 C          -6.199223      -16.696308        1.436853
 H          -6.684164      -13.516385        3.024987
 H          -5.447386      -14.654383        3.415158
 H          -3.761458      -14.645226        0.013419
 H          -3.538781      -15.316114        1.606849
 H          -7.725282      -15.109371        1.314421
 H          -7.697024      -15.867544        2.874716
 H          -4.573830      -17.006413        0.119321
 H          -5.713313      -15.827427       -0.411934
 H          -6.923188      -17.406197        0.942539
 H          -5.787292      -17.290150        2.286828
