20
 generated by VMD
 C         -64.687103     -175.333801      -55.878002
 N         -63.900600     -175.808411      -56.611614
 H         -65.517746     -174.210846      -58.678238
 H         -65.394958     -174.918030      -55.144779
 C         -65.067261     -173.289124      -58.939415
 C         -65.515793     -171.959518      -58.131844
 C         -63.910698     -173.373642      -60.036526
 C         -64.373749     -170.914307      -58.292599
 C         -63.099831     -172.071548      -60.214645
 C         -63.859123     -170.841644      -59.729713
 H         -65.725395     -172.334259      -57.116592
 H         -66.436684     -171.670471      -58.511978
 H         -63.181385     -174.298904      -59.948452
 H         -64.533791     -173.552155      -60.997906
 H         -63.532333     -171.101685      -57.545845
 H         -64.771378     -169.880630      -58.082981
 H         -62.766636     -171.868759      -61.228817
 H         -62.131996     -172.289032      -59.713287
 H         -63.186947     -170.028290      -59.799847
 H         -64.632629     -170.590607      -60.455662
