20
 generated by VMD
 C         -79.901062     -205.382187      -71.326157
 N         -80.174568     -206.540207      -71.490097
 H         -77.235123     -203.078659      -70.614502
 H         -79.612373     -204.391129      -71.027573
 C         -76.203918     -203.316162      -70.315735
 C         -75.135162     -202.293106      -70.308929
 C         -75.936920     -204.813919      -70.087036
 C         -73.877701     -203.117188      -70.682274
 C         -74.770081     -205.020844      -69.183922
 C         -73.596565     -204.040695      -69.493797
 H         -75.072128     -201.858490      -69.335182
 H         -75.451553     -201.512146      -71.080360
 H         -76.804016     -205.412018      -69.708511
 H         -75.662086     -205.141891      -71.097008
 H         -72.973564     -202.554993      -70.752754
 H         -73.863647     -203.633926      -71.621513
 H         -74.380241     -206.053848      -69.320862
 H         -75.114250     -204.876007      -68.167305
 H         -73.452553     -203.454636      -68.605835
 H         -72.714630     -204.605682      -69.541618
