20
 generated by VMD
 C         -49.818878     -141.992126      -45.174793
 N         -49.178314     -142.933701      -45.313698
 H         -51.511330     -139.371750      -46.182961
 H         -50.502403     -141.163712      -45.053898
 C         -52.397114     -139.939301      -46.434589
 C         -52.466080     -140.110214      -47.882793
 C         -53.431152     -140.437668      -45.634148
 C         -52.872417     -141.511154      -48.235245
 C         -54.152016     -141.797989      -46.069664
 C         -54.218189     -141.824097      -47.590836
 H         -51.499073     -139.999161      -48.346897
 H         -53.039894     -139.251175      -48.274170
 H         -53.219208     -140.473724      -44.539787
 H         -54.331230     -139.706543      -45.558369
 H         -52.068798     -142.250992      -48.060097
 H         -52.987190     -141.647888      -49.347683
 H         -55.079590     -141.874146      -45.596806
 H         -53.595112     -142.674606      -45.833973
 H         -54.662415     -142.791840      -47.943623
 H         -54.978344     -141.169388      -47.998787
