20
 generated by VMD
 C         -20.004810      -60.665615      -16.979416
 N         -19.260765      -60.001377      -17.608440
 H         -23.790567      -60.465088      -16.857975
 H         -20.808315      -61.361462      -16.574257
 C         -23.347923      -61.465347      -16.628572
 C         -23.278711      -62.362808      -17.855083
 C         -23.301109      -62.040493      -15.246576
 C         -23.394106      -63.898033      -17.725058
 C         -23.107149      -63.512039      -15.315311
 C         -23.943718      -64.201172      -16.368830
 H         -22.255522      -62.261570      -18.330168
 H         -24.142986      -62.124287      -18.664108
 H         -22.411570      -61.563835      -14.744157
 H         -24.295813      -61.818344      -14.700465
 H         -22.436302      -64.386307      -17.908348
 H         -23.992676      -64.211639      -18.531008
 H         -23.109707      -64.098091      -14.390725
 H         -22.032867      -63.674282      -15.547089
 H         -23.989021      -65.286766      -16.138742
 H         -25.051205      -63.865990      -16.324852
