20
 generated by VMD
 C         -22.446568      -52.260616      -11.577298
 N         -22.102280      -52.738197      -10.546654
 H         -19.838240      -52.559666      -14.236520
 H         -22.366693      -51.744270      -12.373153
 C         -18.833481      -52.371811      -13.923876
 C         -17.836391      -51.647820      -14.817930
 C         -18.539021      -52.538433      -12.499784
 C         -16.465191      -52.137222      -14.604874
 C         -17.245975      -51.880096      -12.073863
 C         -16.118502      -52.175510      -13.120932
 H         -17.923286      -50.547264      -14.583912
 H         -18.140947      -51.710133      -15.830814
 H         -19.326603      -52.145088      -11.857601
 H         -18.517294      -53.668533      -12.294667
 H         -15.764883      -51.521595      -15.178386
 H         -16.491085      -53.131657      -15.025777
 H         -17.046051      -52.218983      -11.016880
 H         -17.356281      -50.856327      -12.033059
 H         -15.267447      -51.514072      -13.054379
 H         -15.891402      -53.207691      -12.915803
