20
 generated by VMD
 C         -60.203926     -156.180527      -55.655289
 N         -60.558533     -155.100189      -55.537636
 H         -59.784611     -157.907318      -52.658562
 H         -59.884109     -157.173782      -55.993370
 C         -58.937885     -157.642593      -52.115818
 C         -58.258545     -156.349472      -52.155373
 C         -58.096981     -158.780975      -51.734901
 C         -57.201851     -156.094193      -51.116516
 C         -56.974407     -158.544312      -50.657978
 C         -56.233002     -157.201645      -51.010166
 H         -58.914894     -155.452652      -52.267956
 H         -57.843811     -156.363251      -53.163208
 H         -58.756744     -159.583191      -51.260509
 H         -57.637112     -159.323227      -52.529118
 H         -57.455521     -155.906693      -50.127052
 H         -56.792374     -155.123627      -51.449074
 H         -56.320759     -159.442245      -50.578747
 H         -57.336712     -158.404099      -49.728691
 H         -55.408054     -156.888794      -50.390621
 H         -55.684685     -157.294495      -52.014202
