20
 generated by VMD
 C         -79.476509     -206.695389      -73.554932
 N         -80.452835     -206.083679      -73.244339
 H         -78.003410     -205.273697      -71.082924
 H         -78.781708     -207.455276      -73.739639
 C         -77.068359     -205.300446      -70.508476
 C         -75.950562     -204.340347      -70.935455
 C         -76.693916     -206.683823      -69.953934
 C         -74.586082     -204.560226      -70.251373
 C         -75.439705     -206.630615      -69.034103
 C         -74.390602     -205.926620      -69.852592
 H         -76.231331     -203.363724      -70.604202
 H         -75.836975     -204.298111      -72.017326
 H         -77.591537     -206.856079      -69.353043
 H         -76.570839     -207.439423      -70.757393
 H         -74.302971     -203.906754      -69.407906
 H         -73.717834     -204.339661      -70.984192
 H         -75.184433     -207.608643      -68.801430
 H         -75.500832     -206.017578      -68.131279
 H         -73.408455     -206.126511      -69.443756
 H         -74.327690     -206.377106      -70.877251
