20
 generated by VMD
 C         -60.283245     -170.579590      -55.184334
 N         -59.221966     -170.948242      -55.305305
 H         -63.309216     -170.461319      -56.562191
 H         -61.313934     -170.276260      -54.994614
 C         -63.440948     -169.521225      -57.014202
 C         -62.348446     -168.810471      -57.663391
 C         -64.565140     -168.840500      -56.366104
 C         -62.960964     -167.981476      -58.765106
 C         -65.201775     -168.025528      -57.435390
 C         -64.100731     -167.084595      -58.143517
 H         -61.650455     -169.441025      -58.067448
 H         -61.755966     -168.255447      -56.797646
 H         -65.452843     -169.427032      -56.004700
 H         -64.248260     -168.180649      -55.531616
 H         -63.357365     -168.659821      -59.499554
 H         -62.145023     -167.390671      -59.140106
 H         -66.074753     -167.395279      -56.989040
 H         -65.711510     -168.757843      -58.241524
 H         -64.636108     -166.524292      -58.963715
 H         -63.727524     -166.299454      -57.494484
