20
 generated by VMD
 C          -9.776877      -24.776575        0.554404
 N         -10.503391      -25.244593       -0.142785
 H          -6.333140      -24.185036       -0.856770
 H          -8.021654      -23.779894       -1.006508
 C          -7.064747      -23.980310       -1.621782
 C          -7.186052      -25.288092       -2.514107
 C          -6.692048      -22.736591       -2.356306
 C          -8.062421      -24.891035       -3.752748
 C          -7.581594      -22.395023       -3.576935
 C          -7.671241      -23.611616       -4.492943
 H          -7.582435      -26.219574       -2.032626
 H          -6.105424      -25.571432       -2.758630
 H          -6.750846      -21.916134       -1.604763
 H          -5.686524      -22.722525       -2.704791
 H          -9.135220      -24.875360       -3.493874
 H          -8.079670      -25.642645       -4.517254
 H          -7.176631      -21.508286       -4.135110
 H          -8.608120      -22.131577       -3.221755
 H          -8.572683      -23.433382       -5.121507
 H          -6.765561      -23.718109       -5.051910
