20
 generated by VMD
 C         -42.931931     -120.766716      -35.324512
 N         -42.639072     -120.994576      -34.248119
 H         -44.369659     -121.123367      -38.723240
 H         -43.352036     -120.399689      -36.217918
 C         -44.098259     -120.072441      -38.596344
 C         -43.117184     -119.532524      -39.587574
 C         -45.175930     -119.193047      -38.147987
 C         -43.755886     -118.862259      -40.754608
 C         -46.008114     -118.760353      -39.317387
 C         -45.015556     -118.136414      -40.358418
 H         -42.309921     -120.244659      -39.846645
 H         -42.666241     -118.792175      -39.050934
 H         -45.718872     -119.836845      -37.427715
 H         -44.622494     -118.461288      -37.656052
 H         -44.178886     -119.613289      -41.459873
 H         -42.960297     -118.204689      -41.206959
 H         -46.773930     -118.021141      -38.839363
 H         -46.510677     -119.644180      -39.606724
 H         -45.530582     -117.891891      -41.335686
 H         -44.749508     -117.160110      -39.892639
