20
 generated by VMD
 C         -58.575298     -161.818634      -56.483543
 N         -57.936993     -160.888412      -56.077297
 H         -59.432320     -164.890945      -55.268818
 H         -59.173870     -162.661728      -56.903755
 C         -60.300655     -164.285049      -54.810139
 C         -59.993744     -163.646790      -53.528748
 C         -61.654465     -164.405350      -55.275333
 C         -60.674084     -162.322693      -53.386848
 C         -62.495129     -163.191452      -54.781612
 C         -62.185135     -162.540634      -53.421791
 H         -58.937519     -163.481064      -53.368172
 H         -60.163975     -164.382126      -52.779121
 H         -61.661648     -164.258102      -56.394054
 H         -62.068073     -165.358322      -54.954483
 H         -60.486771     -161.694992      -54.217327
 H         -60.477097     -161.895096      -52.392899
 H         -63.657478     -163.541641      -54.757290
 H         -62.644299     -162.440735      -55.597248
 H         -62.742756     -161.597702      -53.325508
 H         -62.468987     -163.237183      -52.680416
