20
 generated by VMD
 C         -27.959097      -86.596489      -26.904257
 N         -27.963526      -85.541817      -26.339994
 H         -31.005016      -85.645355      -25.529943
 H         -27.981651      -87.545387      -27.295864
 C         -31.870615      -86.392273      -25.578690
 C         -32.677719      -86.848160      -24.460087
 C         -32.005054      -87.042938      -26.860088
 C         -34.057804      -87.257530      -24.793720
 C         -33.503254      -87.507675      -27.241474
 C         -34.089828      -88.245155      -26.020533
 H         -32.617596      -86.164413      -23.648865
 H         -32.027481      -87.678871      -24.008314
 H         -31.575499      -86.346436      -27.639767
 H         -31.370573      -87.922043      -26.811636
 H         -34.848515      -86.574265      -25.048031
 H         -34.512089      -87.805702      -24.022276
 H         -33.437752      -88.065086      -28.209576
 H         -34.077137      -86.612579      -27.476927
 H         -35.155861      -88.581612      -26.206589
 H         -33.431801      -89.165306      -25.768154
