20
 generated by VMD
 C         -28.038919      -81.235306      -27.543489
 N         -29.216053      -81.178810      -27.493160
 H         -29.326771      -83.201714      -24.864487
 H         -27.078196      -81.272987      -27.857754
 C         -30.237043      -83.660576      -24.505754
 C         -30.191086      -83.923759      -23.040543
 C         -30.824841      -84.814064      -25.331198
 C         -31.527962      -84.316780      -22.576752
 C         -32.219460      -84.953781      -24.799673
 C         -32.258064      -85.544571      -23.352625
 H         -29.817598      -83.067101      -22.410215
 H         -29.609549      -84.780273      -22.855320
 H         -30.858141      -84.509613      -26.396641
 H         -30.227911      -85.734772      -25.143995
 H         -32.183315      -83.335358      -22.467737
 H         -31.555502      -84.592102      -21.580521
 H         -32.688534      -85.659111      -25.466541
 H         -32.832478      -83.990059      -25.037491
 H         -33.321823      -85.819145      -23.040354
 H         -31.610004      -86.429504      -23.241148
