20
 generated by VMD
 C          -1.727557      -16.693485        2.765875
 N          -2.116905      -15.711451        2.395967
 H          -4.224450      -15.984913       -0.274533
 H          -4.910941      -17.203630       -1.412763
 C          -5.111794      -16.620205       -0.503653
 C          -6.353747      -15.876460       -0.783617
 C          -5.259276      -17.607111        0.614562
 C          -7.438393      -16.831915       -1.205369
 C          -6.449982      -18.547600        0.391423
 C          -7.750112      -17.826263       -0.087612
 H          -6.240852      -15.120107       -1.575344
 H          -6.629532      -15.287425        0.113579
 H          -4.259567      -18.051088        0.947494
 H          -5.483030      -16.933210        1.504704
 H          -7.135716      -17.360462       -2.072739
 H          -8.305992      -16.303604       -1.575708
 H          -6.665662      -19.052069        1.310375
 H          -6.211446      -19.345697       -0.352767
 H          -8.439873      -18.578815       -0.523605
 H          -8.249190      -17.337593        0.788571
