20
 generated by VMD
 C         -69.021652     -193.152191      -66.553551
 N         -67.931580     -193.493973      -66.600327
 H         -69.862991     -190.220596      -65.373634
 H         -70.064667     -192.891785      -66.360756
 C         -70.896393     -190.589035      -65.397636
 C         -71.785164     -190.727081      -66.583252
 C         -71.452454     -190.966827      -64.014977
 C         -72.915207     -191.828171      -66.393578
 C         -73.066597     -190.846497      -63.977802
 C         -73.672035     -191.723480      -65.113495
 H         -71.180153     -191.036575      -67.354218
 H         -72.284241     -189.728165      -66.812653
 H         -71.174896     -191.962341      -63.860600
 H         -71.040886     -190.243240      -63.285389
 H         -72.545853     -192.822220      -66.551315
 H         -73.547180     -191.745926      -67.281418
 H         -73.459877     -189.871414      -64.264740
 H         -73.482948     -191.143204      -63.060822
 H         -73.644440     -192.878235      -64.818817
 H         -74.742378     -191.440552      -65.284966
