20
 generated by VMD
 C         -31.033545      -75.649612      -21.533184
 N         -32.014446      -75.217598      -21.092230
 H         -27.878996      -74.868927      -20.369991
 H         -29.944107      -75.952362      -21.354652
 C         -26.812975      -74.977180      -20.485949
 C         -26.494444      -76.128349      -21.305235
 C         -25.797604      -73.877831      -20.383467
 C         -25.975403      -75.710449      -22.652319
 C         -25.344778      -73.464096      -21.761572
 C         -24.926001      -74.671761      -22.657129
 H         -27.420891      -76.883629      -21.303360
 H         -25.779921      -76.784470      -20.775488
 H         -26.290165      -73.117294      -19.902544
 H         -24.915894      -74.269508      -19.887852
 H         -26.809448      -75.330421      -23.227436
 H         -25.583132      -76.543182      -23.251154
 H         -24.641621      -72.660759      -21.612823
 H         -26.108889      -72.935677      -22.320681
 H         -24.882954      -74.118080      -23.605408
 H         -24.006649      -75.145805      -22.284210
