20
 generated by VMD
 C          -3.635158      -19.141743        2.493540
 N          -3.337056      -18.283377        3.141352
 H          -5.591422      -20.421732        0.255351
 H          -6.152305      -21.229422       -1.203407
 C          -6.198470      -20.255056       -0.675800
 C          -5.530311      -19.261042       -1.618232
 C          -7.636985      -19.912193       -0.207656
 C          -6.516984      -18.971392       -2.731333
 C          -8.527076      -19.480030       -1.355658
 C          -7.785965      -18.460636       -2.191183
 H          -4.549497      -19.582832       -1.915800
 H          -5.383113      -18.225258       -1.135847
 H          -8.090625      -20.705492        0.429085
 H          -7.522442      -19.103426        0.506962
 H          -6.649950      -19.911911       -3.275747
 H          -6.118512      -18.305250       -3.503023
 H          -9.405482      -18.985809       -0.982984
 H          -8.872007      -20.373442       -1.912255
 H          -8.469766      -18.140146       -3.009959
 H          -7.651199      -17.543001       -1.596486
