20
 generated by VMD
 C         -59.993431     -156.673691      -55.839363
 N         -60.958740     -156.143524      -56.213947
 H         -59.711395     -157.730011      -53.063946
 H         -59.114113     -157.272812      -55.566338
 C         -58.721390     -157.995209      -52.898312
 C         -57.649731     -156.967255      -52.508930
 C         -58.624889     -159.413116      -52.437004
 C         -57.367847     -157.047806      -51.050007
 C         -58.298038     -159.401443      -50.948879
 C         -57.143093     -158.436401      -50.607250
 H         -57.935936     -155.940735      -52.859207
 H         -56.711605     -157.372498      -53.165127
 H         -59.511456     -160.045227      -52.518909
 H         -57.785061     -159.843018      -53.097130
 H         -58.042656     -156.590515      -50.293415
 H         -56.471821     -156.464783      -50.813251
 H         -58.169540     -160.419708      -50.502666
 H         -59.238235     -158.929260      -50.441193
 H         -56.893192     -158.421097      -49.465515
 H         -56.126003     -158.711838      -50.973907
