20
 generated by VMD
 C         -56.686581     -150.092072      -47.675529
 N         -57.665501     -150.408356      -48.108715
 H         -53.411930     -148.390762      -47.471333
 H         -55.732426     -149.866913      -47.176479
 C         -53.668602     -148.025055      -48.429981
 C         -53.173260     -148.722839      -49.561749
 C         -54.539703     -146.829971      -48.602196
 C         -54.092781     -148.854523      -50.783451
 C         -55.596676     -147.000458      -49.638535
 C         -54.972164     -147.566528      -50.988289
 H         -52.634014     -149.706665      -49.329693
 H         -52.325970     -148.249374      -49.998737
 H         -55.110641     -146.660416      -47.625370
 H         -53.836891     -145.952896      -48.645592
 H         -54.740513     -149.788239      -50.751694
 H         -53.543652     -149.028503      -51.716984
 H         -56.052769     -145.953125      -49.766495
 H         -56.507729     -147.669327      -49.358730
 H         -55.731678     -147.762115      -51.786415
 H         -54.240467     -146.804077      -51.376926
