20
 generated by VMD
 C         -79.807289     -206.878891      -75.715820
 N         -80.072449     -207.314423      -74.678070
 H         -77.314369     -208.006989      -73.092171
 H         -79.474014     -206.688354      -76.678680
 C         -76.869370     -208.491104      -72.201683
 C         -75.697464     -208.042770      -71.411369
 C         -77.742722     -209.508392      -71.599854
 C         -76.028748     -207.829376      -69.870888
 C         -78.152992     -209.025131      -70.201469
 C         -76.989670     -208.920013      -69.325417
 H         -75.290077     -207.065399      -71.645981
 H         -74.943039     -208.803101      -71.492134
 H         -78.660172     -209.809540      -72.230240
 H         -77.058823     -210.365967      -71.595337
 H         -76.521446     -206.860626      -69.669212
 H         -75.165070     -207.899109      -69.185272
 H         -78.971405     -209.764954      -69.894714
 H         -78.636429     -208.051651      -70.207230
 H         -77.229469     -208.710022      -68.282761
 H         -76.404678     -209.858505      -69.377121
