20
 generated by VMD
 C         -51.002026     -130.785599      -46.389881
 N         -50.290359     -130.674866      -47.253929
 H         -48.378662     -132.085739      -44.438274
 H         -51.548168     -131.033432      -45.451504
 C         -48.302292     -132.364609      -43.389969
 C         -48.811543     -133.695541      -43.083836
 C         -48.320644     -131.343857      -42.233276
 C         -48.396767     -134.265076      -41.668560
 C         -47.821762     -131.921432      -40.902645
 C         -48.616650     -133.235504      -40.604870
 H         -48.499424     -134.350037      -43.844711
 H         -49.924007     -133.522461      -43.262497
 H         -47.537678     -130.444870      -42.411907
 H         -49.333191     -130.909348      -42.157116
 H         -47.395699     -134.715851      -41.754902
 H         -49.045044     -135.163177      -41.588886
 H         -47.915668     -131.123993      -40.138783
 H         -46.686588     -132.191528      -40.957050
 H         -48.217651     -133.676727      -39.627911
 H         -49.647305     -132.986404      -40.507256
