20
 generated by VMD
 C         -59.698967     -169.437714      -55.665882
 N         -59.765549     -168.568497      -54.963505
 H         -63.108501     -170.369705      -56.294537
 H         -59.550175     -170.327805      -56.248230
 C         -63.294083     -169.349472      -56.665108
 C         -62.682899     -168.871094      -58.089706
 C         -63.335228     -168.165268      -55.695251
 C         -63.579021     -167.667267      -58.592590
 C         -64.146332     -166.988129      -56.271553
 C         -63.469406     -166.547119      -57.561562
 H         -62.692116     -169.527008      -58.873695
 H         -61.596535     -168.484528      -57.955444
 H         -63.653610     -168.505951      -54.783909
 H         -62.328243     -167.894653      -55.551636
 H         -64.616173     -167.970963      -58.952431
 H         -63.117023     -167.241379      -59.533962
 H         -63.981789     -166.257172      -55.512951
 H         -65.163277     -167.157074      -56.465908
 H         -63.924801     -165.635300      -57.990978
 H         -62.427784     -166.168320      -57.308880
