20
 generated by VMD
 C         -70.777863     -181.486298      -64.210495
 N         -70.372482     -182.343811      -63.565907
 H         -68.527512     -181.120743      -61.083496
 H         -71.147781     -180.689133      -64.865005
 C         -67.486404     -180.832474      -60.736931
 C         -66.386024     -181.782944      -60.456215
 C         -67.371094     -179.280014      -60.443146
 C         -64.918488     -181.122421      -60.843182
 C         -65.900681     -178.811691      -60.841213
 C         -64.790344     -179.694550      -60.322975
 H         -66.496452     -182.648788      -61.064289
 H         -66.488007     -182.161011      -59.468624
 H         -68.132240     -178.803146      -61.123817
 H         -67.660294     -179.164398      -59.391087
 H         -64.828957     -181.233200      -61.969223
 H         -64.075569     -181.790482      -60.445518
 H         -65.761955     -177.781860      -60.496597
 H         -65.873993     -178.916748      -61.950268
 H         -63.773289     -179.350403      -60.639465
 H         -64.745163     -179.633362      -59.225616
