20
 generated by VMD
 C         -12.712367      -27.606199       -2.618191
 N         -13.787430      -27.409924       -2.817414
 H         -10.593720      -27.330965       -3.595453
 H          -9.641786      -26.652279       -4.892519
 C          -9.541783      -27.227119       -4.012687
 C          -8.964890      -28.574705       -4.462739
 C          -8.735411      -26.536781       -2.883695
 C          -7.487618      -28.478561       -4.778687
 C          -7.227384      -26.426966       -3.225818
 C          -6.638061      -27.780375       -3.650257
 H          -9.548777      -28.868917       -5.363358
 H          -9.229976      -29.304600       -3.719769
 H          -9.112441      -25.493172       -2.797115
 H          -8.834321      -27.136217       -1.929313
 H          -7.236036      -28.025509       -5.740076
 H          -7.090704      -29.470135       -4.915742
 H          -6.629388      -26.099846       -2.302828
 H          -7.040025      -25.637169       -3.959335
 H          -5.629757      -27.637772       -4.001237
 H          -6.469660      -28.390139       -2.730169
