20
 generated by VMD
 C         -59.984375     -152.532059      -51.021393
 N         -60.891670     -152.877396      -51.568626
 H         -56.977089     -152.779678      -49.516205
 H         -59.216869     -152.142487      -50.355331
 C         -56.028023     -152.248077      -49.507835
 C         -54.654533     -152.818222      -49.496204
 C         -56.070286     -150.758072      -49.762707
 C         -53.881832     -152.351532      -50.734898
 C         -55.397293     -150.213486      -51.072086
 C         -53.979031     -150.853058      -51.004101
 H         -54.785469     -153.937256      -49.549088
 H         -54.038982     -152.559662      -48.593067
 H         -57.061081     -150.317734      -49.653233
 H         -55.500015     -150.172623      -49.010357
 H         -54.142147     -152.851700      -51.671833
 H         -52.769840     -152.534103      -50.516724
 H         -55.364700     -149.064301      -51.206078
 H         -55.854198     -150.543442      -52.023659
 H         -53.586349     -150.901398      -52.063519
 H         -53.312294     -150.330124      -50.335770
