20
 generated by VMD
 C         -58.709858     -161.264160      -56.535244
 N         -58.485291     -160.182800      -56.724506
 H         -59.264954     -164.791962      -54.917747
 H         -58.922482     -162.286621      -56.347088
 C         -59.993759     -164.062042      -54.561989
 C         -59.602055     -163.334610      -53.264637
 C         -61.429684     -163.913147      -54.999962
 C         -60.366055     -162.108444      -52.805138
 C         -62.134659     -162.523087      -54.646839
 C         -61.896164     -162.258789      -53.053547
 H         -58.492573     -163.233002      -53.043377
 H         -59.726288     -164.181610      -52.442062
 H         -61.458420     -164.120300      -56.036530
 H         -61.975136     -164.745331      -54.478989
 H         -59.896130     -161.309082      -53.437706
 H         -60.259331     -161.999817      -51.774929
 H         -63.158054     -162.558044      -54.816490
 H         -61.626007     -161.799255      -55.166489
 H         -62.421162     -161.363770      -52.798958
 H         -62.336483     -163.110626      -52.528530
