20
 generated by VMD
 C         -28.966993      -81.435699      -27.671099
 N         -29.764566      -80.597343      -27.497406
 H         -29.159946      -82.194481      -23.903790
 H         -28.134361      -82.234322      -27.777431
 C         -29.592751      -83.163834      -23.811377
 C         -29.782932      -83.894699      -22.596567
 C         -30.084185      -83.914757      -24.954287
 C         -31.326912      -83.921890      -22.320360
 C         -31.570974      -84.249153      -24.930714
 C         -32.042095      -84.718979      -23.445400
 H         -29.245964      -83.303185      -21.824898
 H         -29.263052      -84.903374      -22.685520
 H         -29.899055      -83.360046      -25.931723
 H         -29.485792      -84.863251      -24.941444
 H         -31.774389      -82.894295      -22.075483
 H         -31.288404      -84.410484      -21.452808
 H         -31.831543      -85.088921      -25.540144
 H         -32.284313      -83.386734      -25.177652
 H         -33.172085      -84.672379      -23.253017
 H         -31.703541      -85.772949      -23.430710
