20
 generated by VMD
 C         -68.473755     -185.619339      -66.146629
 N         -69.059563     -186.031036      -67.040276
 H         -69.439499     -183.229431      -63.791927
 H         -67.986740     -185.163681      -65.266510
 C         -69.236732     -183.823318      -62.957581
 C         -70.322754     -184.716660      -62.465302
 C         -67.941559     -183.741119      -62.201420
 C         -69.967751     -185.856018      -61.639904
 C         -67.744934     -184.807083      -61.086811
 C         -68.408813     -186.101929      -61.493660
 H         -70.926979     -185.052460      -63.307178
 H         -71.075996     -184.148697      -61.851658
 H         -67.165863     -183.684479      -62.947495
 H         -67.872345     -182.747894      -61.761707
 H         -70.355759     -186.882523      -61.834000
 H         -70.443146     -185.551727      -60.674934
 H         -68.366768     -184.365799      -60.230640
 H         -66.737350     -185.124771      -60.855751
 H         -68.001297     -186.641800      -62.462296
 H         -68.201714     -186.848038      -60.687325
