20
 generated by VMD
 C         -63.108677     -174.848373      -54.896244
 N         -62.919167     -174.294495      -55.874073
 H         -64.387199     -173.296036      -57.886929
 H         -63.350899     -175.431824      -54.018276
 C         -64.293755     -172.328293      -58.334381
 C         -64.481590     -171.153992      -57.496616
 C         -64.395912     -172.381271      -59.828827
 C         -63.799801     -169.937515      -58.217804
 C         -63.877308     -171.000031      -60.456978
 C         -64.411461     -169.696869      -59.712051
 H         -64.201752     -171.365662      -56.520653
 H         -65.685020     -170.883911      -57.417793
 H         -63.750698     -173.167587      -60.091084
 H         -65.387947     -172.552444      -60.072174
 H         -62.662315     -170.011261      -58.253048
 H         -63.915264     -169.019653      -57.624176
 H         -64.217827     -170.977158      -61.539520
 H         -62.785225     -170.887650      -60.448208
 H         -64.148033     -168.694092      -60.121304
 H         -65.525208     -169.761353      -59.690666
