20
 generated by VMD
 C         -36.677338      -98.302071      -26.057320
 N         -37.387318      -98.365868      -26.990135
 H         -36.405529      -95.983063      -28.733356
 H         -36.111244      -98.206367      -25.196308
 C         -35.582348      -95.991211      -29.474230
 C         -35.600025      -96.769455      -30.681746
 C         -34.401260      -95.067406      -29.048161
 C         -35.116459      -96.005013      -31.952885
 C         -33.974735      -94.288147      -30.291130
 C         -33.863598      -95.155655      -31.569706
 H         -36.657406      -97.118874      -30.936668
 H         -34.938480      -97.615990      -30.490513
 H         -34.717327      -94.354385      -28.276783
 H         -33.616444      -95.641434      -28.569147
 H         -35.981583      -95.349197      -32.260761
 H         -34.889732      -96.590096      -32.809284
 H         -32.982815      -93.885925      -29.987514
 H         -34.704178      -93.455383      -30.426981
 H         -33.421684      -94.619858      -32.361397
 H         -32.955784      -96.007126      -31.251188
