20
 generated by VMD
 C         -49.789612     -127.472908      -39.519989
 N         -48.950665     -126.694496      -39.385277
 H         -47.298286     -126.492775      -41.220592
 H         -50.684860     -128.049500      -39.498199
 C         -46.477070     -125.826790      -41.112240
 C         -45.180157     -126.171547      -40.431412
 C         -46.723595     -124.336029      -41.213032
 C         -43.916389     -125.350304      -40.669422
 C         -45.432945     -123.415451      -41.436672
 C         -44.286633     -123.852615      -40.543365
 H         -45.107929     -127.278854      -40.713104
 H         -45.385139     -126.159660      -39.383385
 H         -47.470020     -124.331459      -42.025589
 H         -47.022972     -124.043159      -40.209274
 H         -43.447796     -125.470520      -41.628258
 H         -43.143162     -125.576775      -39.949688
 H         -45.704689     -122.340996      -41.056301
 H         -45.208302     -123.458878      -42.529358
 H         -43.384117     -123.265900      -40.757061
 H         -44.501347     -123.533905      -39.477253
