20
 generated by VMD
 C         -67.983009     -178.537231      -58.054199
 N         -66.906311     -178.406601      -57.608536
 H         -65.333771     -176.427109      -58.693539
 H         -68.930305     -178.802490      -58.483318
 C         -65.052917     -175.638947      -59.449692
 C         -66.020203     -174.679672      -60.056221
 C         -63.570423     -175.720673      -59.903603
 C         -65.424942     -173.256348      -59.921207
 C         -62.999210     -174.199982      -59.919262
 C         -64.073341     -173.142838      -60.459961
 H         -67.018059     -174.637390      -59.544773
 H         -66.261032     -175.049332      -61.068829
 H         -62.903736     -176.245972      -59.247082
 H         -63.529278     -175.979340      -60.963814
 H         -65.612122     -172.913559      -58.877724
 H         -66.113731     -172.612488      -60.560883
 H         -61.997066     -174.311035      -60.277172
 H         -62.884655     -173.772842      -58.892872
 H         -63.625111     -172.157898      -60.306377
 H         -64.015099     -173.264938      -61.532978
