20
 generated by VMD
 C         -79.997910     -206.904144      -74.102501
 N         -80.486130     -206.300079      -74.925201
 H         -77.642036     -206.723114      -72.032211
 H         -79.770447     -207.554016      -73.252266
 C         -76.859772     -207.336761      -71.761261
 C         -75.593132     -206.730667      -71.544342
 C         -77.224373     -208.547775      -71.022514
 C         -75.451965     -206.361725      -70.070427
 C         -77.049240     -208.371826      -69.474106
 C         -75.792023     -207.490829      -69.108124
 H         -75.320854     -205.846741      -72.104752
 H         -74.815536     -207.413788      -71.947327
 H         -78.193916     -208.858505      -71.407257
 H         -76.570099     -209.413116      -71.388580
 H         -75.955299     -205.395645      -69.900833
 H         -74.409721     -206.097107      -69.891296
 H         -76.985878     -209.386795      -69.088928
 H         -77.997932     -207.927933      -69.005196
 H         -75.618019     -207.076660      -68.092247
 H         -74.993599     -208.122330      -69.282883
