20
 generated by VMD
 C         -40.294064     -101.050697      -32.187603
 N         -41.085178     -100.786079      -31.416334
 H         -37.763451     -103.782715      -32.296253
 H         -39.378044     -101.251396      -32.829124
 C         -37.350262     -102.787674      -31.934511
 C         -36.058758     -102.414497      -32.860176
 C         -37.350586     -102.431602      -30.494553
 C         -35.269947     -101.155716      -32.421421
 C         -36.477001     -101.118866      -30.229885
 C         -35.111950     -101.058571      -30.960659
 H         -36.337002     -102.432114      -33.893394
 H         -35.383091     -103.248421      -32.745399
 H         -38.407028     -102.214523      -30.081993
 H         -36.921921     -103.259621      -29.947960
 H         -35.611958     -100.282379      -32.986126
 H         -34.279888     -101.321388      -32.787804
 H         -36.404816     -101.040901      -29.160070
 H         -37.121033     -100.193855      -30.541431
 H         -34.647964     -100.082230      -30.776186
 H         -34.604565     -101.899307      -30.552469
