20
 generated by VMD
 C         -20.490524      -61.511639      -17.106070
 N         -19.390898      -61.134251      -17.159712
 H         -21.759844      -64.861397      -16.563795
 H         -21.523451      -61.903740      -17.251986
 C         -22.698324      -64.979958      -17.073338
 C         -23.111349      -64.253494      -18.334108
 C         -23.754423      -65.188965      -15.969966
 C         -24.465540      -64.614403      -18.837166
 C         -25.200495      -65.465492      -16.545589
 C         -25.499767      -64.530945      -17.712149
 H         -22.418818      -64.523788      -19.112665
 H         -22.943624      -63.228428      -18.295925
 H         -23.364420      -66.046669      -15.429888
 H         -23.700235      -64.332458      -15.370514
 H         -24.402500      -65.598740      -19.209972
 H         -24.626993      -63.822269      -19.598854
 H         -25.847227      -65.097816      -15.749950
 H         -25.414940      -66.518044      -16.749352
 H         -26.480362      -64.688316      -18.199707
 H         -25.322855      -63.541862      -17.301891
