20
 generated by VMD
 C         -50.664684     -128.837280      -42.338047
 N         -51.516159     -128.209900      -41.824566
 H         -48.138527     -128.055725      -40.877357
 H         -49.668587     -129.186142      -42.643208
 C         -47.128925     -127.503464      -40.708302
 C         -45.878212     -128.201019      -40.152615
 C         -46.976109     -126.137627      -41.239914
 C         -44.582191     -127.841522      -40.879627
 C         -45.673939     -125.840012      -41.950878
 C         -44.402325     -126.238266      -41.166557
 H         -46.042057     -129.254135      -40.203625
 H         -45.845459     -128.026184      -39.021461
 H         -47.886848     -126.003159      -41.741222
 H         -47.056992     -125.450066      -40.436188
 H         -44.643711     -128.320770      -41.844620
 H         -43.767139     -128.191910      -40.326462
 H         -45.664062     -124.676826      -42.014164
 H         -45.689915     -126.336220      -42.979443
 H         -43.465946     -126.034424      -41.736862
 H         -44.491432     -125.733971      -40.189075
