20
 generated by VMD
 C         -21.178474      -52.081356      -10.535441
 N         -21.460468      -53.154613      -10.636371
 H         -19.544483      -49.965885      -13.283143
 H         -20.927000      -50.837902      -10.831168
 C         -18.624790      -50.493065      -13.095778
 C         -18.429697      -51.859604      -13.673893
 C         -17.742987      -49.867840      -12.084069
 C         -16.945000      -51.854702      -14.172663
 C         -16.410044      -49.757496      -12.774227
 C         -15.930206      -51.088200      -13.264642
 H         -19.084984      -52.003593      -14.528534
 H         -18.550083      -52.665901      -12.910531
 H         -18.176273      -48.937191      -11.672492
 H         -17.543756      -50.443958      -11.223645
 H         -16.839783      -51.553734      -15.241001
 H         -16.600609      -52.926701      -14.256855
 H         -15.611290      -49.294460      -12.113785
 H         -16.480230      -49.090752      -13.618526
 H         -14.925143      -50.967793      -13.772777
 H         -15.750700      -51.789165      -12.382957
