20
 generated by VMD
 C         -68.836288     -184.634232      -65.999641
 N         -69.570457     -185.466812      -66.309113
 H         -69.718620     -182.956985      -63.426006
 H         -68.134705     -183.819702      -65.707840
 C         -69.101997     -183.771683      -63.015724
 C         -69.860298     -184.935959      -62.487297
 C         -67.920563     -183.049454      -62.235516
 C         -69.007278     -185.794449      -61.624138
 C         -67.246109     -184.074020      -61.261253
 C         -68.165489     -185.029648      -60.587875
 H         -70.291107     -185.618744      -63.285763
 H         -70.731865     -184.655899      -61.920052
 H         -67.173576     -182.776108      -62.926426
 H         -68.384239     -182.176651      -61.817223
 H         -68.273018     -186.435211      -62.220562
 H         -69.744698     -186.482681      -61.089756
 H         -66.699783     -183.483398      -60.546825
 H         -66.470360     -184.671997      -61.806824
 H         -67.825218     -185.702744      -59.856312
 H         -68.861046     -184.499985      -60.038815
