20
 generated by VMD
 C         -67.060272     -189.641418      -66.532524
 N         -66.236320     -189.541885      -67.313484
 H         -70.155258     -190.481537      -65.575348
 H         -67.662033     -189.681900      -65.684486
 C         -70.876976     -190.116379      -64.898300
 C         -71.972130     -190.913055      -64.241737
 C         -70.459702     -188.825607      -64.203209
 C         -73.143784     -189.926224      -64.067772
 C         -71.576889     -187.947189      -63.735001
 C         -72.791519     -188.760818      -63.110004
 H         -71.662636     -191.243271      -63.161800
 H         -72.110268     -191.867279      -64.876434
 H         -69.775146     -189.155029      -63.450729
 H         -69.635941     -188.343765      -64.855515
 H         -74.024132     -190.416077      -63.731232
 H         -73.483704     -189.484711      -65.056625
 H         -71.966270     -187.491180      -64.664520
 H         -71.269524     -187.073578      -63.155048
 H         -72.467934     -189.136703      -62.093746
 H         -73.715340     -188.067856      -63.131950
