20
 generated by VMD
 C         -47.944992     -134.003372      -47.604733
 N         -48.093494     -133.413391      -48.535149
 H         -49.496960     -134.101349      -44.154522
 H         -47.992195     -134.713654      -46.849083
 C         -50.099709     -134.935043      -43.709972
 C         -50.241459     -136.187607      -44.588276
 C         -51.076885     -134.826019      -42.574581
 C         -50.552605     -137.480469      -43.726391
 C         -51.420677     -136.028824      -41.803455
 C         -51.716660     -137.272125      -42.701992
 H         -49.345295     -136.233673      -45.090309
 H         -51.025074     -135.916321      -45.349857
 H         -50.582798     -134.214188      -41.830917
 H         -51.948563     -134.257202      -42.862957
 H         -49.596561     -137.878311      -43.395485
 H         -50.994770     -138.233521      -44.416714
 H         -52.246162     -135.783585      -41.116497
 H         -50.537083     -136.432449      -41.213734
 H         -51.970539     -138.320679      -42.179642
 H         -52.611240     -137.217682      -43.305355
