20
 generated by VMD
 C         -67.566513     -179.941605      -58.385563
 N         -68.313133     -179.939499      -59.257950
 H         -67.250092     -176.799088      -60.169174
 H         -66.807816     -179.900986      -57.649250
 C         -66.390732     -176.212891      -60.116089
 C         -65.987755     -175.554535      -61.365948
 C         -65.216408     -176.865143      -59.352375
 C         -64.886696     -174.527863      -61.155537
 C         -64.146988     -175.776566      -59.191593
 C         -63.641903     -175.289200      -60.606861
 H         -66.761818     -174.858749      -61.674313
 H         -65.798645     -176.296707      -62.185432
 H         -65.724510     -177.154602      -58.444927
 H         -64.977806     -177.763687      -59.864632
 H         -65.132011     -173.767044      -60.439796
 H         -64.711723     -174.097290      -62.111099
 H         -63.370354     -176.324936      -58.699436
 H         -64.388565     -174.939713      -58.487324
 H         -62.727829     -174.604187      -60.566044
 H         -63.494228     -176.174164      -61.270962
