20
 generated by VMD
 C         -29.126123      -81.320412      -27.738440
 N         -29.854553      -80.450356      -27.564545
 H         -28.547245      -82.396309      -23.978748
 H         -28.466619      -82.171410      -27.654617
 C         -29.270504      -83.198326      -23.764700
 C         -29.819357      -83.663773      -22.360338
 C         -30.031464      -83.896156      -24.917696
 C         -31.305527      -83.886528      -22.279282
 C         -31.525738      -83.930351      -24.779379
 C         -31.829597      -84.679451      -23.496592
 H         -29.512512      -82.962753      -21.537504
 H         -29.396811      -84.577042      -22.196115
 H         -29.876650      -83.445908      -25.945892
 H         -29.606489      -84.891487      -24.996269
 H         -31.737665      -82.846901      -22.322189
 H         -31.404787      -84.396988      -21.270004
 H         -32.001698      -84.406418      -25.571363
 H         -31.939419      -82.913048      -24.742353
 H         -32.937115      -84.930298      -23.335701
 H         -31.434143      -85.661110      -23.607777
