20
 generated by VMD
 C         -58.702927     -161.284241      -56.524899
 N         -58.474525     -160.163971      -56.703571
 H         -59.397755     -164.818008      -54.904877
 H         -58.866837     -162.342407      -56.359978
 C         -60.014175     -164.045959      -54.539165
 C         -59.561295     -163.412247      -53.231464
 C         -61.446819     -163.942780      -55.020660
 C         -60.390537     -162.101212      -52.864159
 C         -62.167500     -162.581909      -54.615108
 C         -61.903366     -162.240067      -53.087795
 H         -58.501877     -163.262421      -53.209957
 H         -59.699623     -164.050446      -52.437809
 H         -61.407097     -164.043961      -56.144104
 H         -61.920052     -164.757217      -54.496300
 H         -59.834476     -161.373611      -53.447857
 H         -60.125866     -161.940186      -51.747356
 H         -63.297321     -162.400330      -54.911411
 H         -61.713291     -161.795013      -55.362846
 H         -62.411625     -161.244003      -52.765217
 H         -62.277016     -163.112289      -52.516754
