20
 generated by VMD
 C         -57.772026     -168.250992      -55.094616
 N         -56.659435     -168.538895      -54.871918
 H         -61.509598     -167.312042      -55.487667
 H         -58.791485     -168.070450      -55.428066
 C         -62.471455     -166.934799      -55.928120
 C         -62.671616     -167.466949      -57.343552
 C         -63.139469     -165.596222      -55.593914
 C         -64.085045     -167.435440      -57.669239
 C         -64.503693     -165.616409      -56.009323
 C         -64.759109     -166.087051      -57.368015
 H         -62.061134     -168.513077      -57.401268
 H         -62.102585     -166.864334      -58.043839
 H         -63.045948     -165.483475      -54.415539
 H         -62.639954     -164.787338      -56.107265
 H         -64.627129     -168.195145      -57.019711
 H         -64.316124     -167.783478      -58.734814
 H         -64.940804     -164.706696      -55.772915
 H         -65.142014     -166.170670      -55.290821
 H         -65.760452     -166.326569      -57.529217
 H         -64.376282     -165.421539      -58.096249
