20
 generated by VMD
 C         -40.960865     -103.722755      -35.787758
 N         -41.583927     -104.712891      -35.741951
 H         -38.710854     -104.031715      -33.621937
 H         -40.379929     -102.846939      -35.835518
 C         -38.461548     -104.887291      -32.949944
 C         -37.018059     -104.918983      -32.564144
 C         -39.287533     -106.188248      -33.070683
 C         -36.849194     -105.906883      -31.407513
 C         -39.149429     -106.974586      -31.665337
 C         -37.629322     -107.220100      -31.499557
 H         -36.637733     -103.859924      -32.340012
 H         -36.455406     -105.346207      -33.421085
 H         -40.254772     -105.873474      -33.250008
 H         -38.972980     -106.825806      -33.968147
 H         -37.101212     -105.525383      -30.418083
 H         -35.790428     -106.118767      -31.217312
 H         -39.520729     -107.978256      -31.579239
 H         -39.637119     -106.516174      -30.792904
 H         -37.434475     -107.906769      -30.602467
 H         -37.299591     -107.815025      -32.305237
