20
 generated by VMD
 C         -22.505259      -55.503220      -16.366865
 N         -23.182310      -54.648262      -16.187155
 H         -19.866135      -55.785187      -15.958948
 H         -21.685841      -56.360325      -16.569176
 C         -19.822617      -56.537491      -15.154563
 C         -20.527563      -56.447262      -13.748687
 C         -18.490047      -57.472897      -15.107963
 C         -20.976542      -57.908909      -13.386756
 C         -18.939501      -58.917004      -14.711533
 C         -19.709131      -58.886364      -13.396239
 H         -21.438486      -55.890144      -13.723255
 H         -19.821863      -56.018341      -13.058537
 H         -18.111778      -57.400539      -16.071709
 H         -17.752569      -56.995014      -14.402398
 H         -21.731586      -58.177990      -14.160944
 H         -21.502525      -58.037582      -12.388896
 H         -18.158552      -59.696529      -14.648272
 H         -19.717060      -59.226368      -15.496147
 H         -19.956184      -59.913544      -13.119032
 H         -19.069172      -58.525467      -12.554498
