20
 generated by VMD
 C         -31.218460      -75.714180      -21.605782
 N         -32.169449      -75.230194      -21.194818
 H         -27.808889      -74.771355      -20.205326
 H         -30.166582      -76.093300      -21.578629
 C         -26.796066      -75.070633      -20.546339
 C         -26.385973      -76.250008      -21.339144
 C         -25.849258      -73.994072      -20.418058
 C         -26.010525      -75.809525      -22.696184
 C         -25.341120      -73.530739      -21.708359
 C         -24.921968      -74.741554      -22.626232
 H         -27.099968      -76.957092      -21.414986
 H         -25.580519      -76.767143      -20.814800
 H         -26.170946      -73.051537      -19.750826
 H         -25.008936      -74.428932      -19.839649
 H         -26.840157      -75.386337      -23.308578
 H         -25.622141      -76.684395      -23.225821
 H         -24.454268      -72.854294      -21.747633
 H         -26.249586      -73.096436      -22.195433
 H         -24.775684      -74.523972      -23.684381
 H         -24.026953      -75.151978      -22.127275
