20
 generated by VMD
 C         -26.872009      -71.860817      -17.543707
 N         -27.144682      -72.954643      -17.287643
 H         -24.058392      -70.044167      -18.937023
 H         -26.729464      -70.832222      -17.853069
 C         -24.886953      -70.336388      -19.577963
 C         -24.331638      -71.507614      -20.363268
 C         -25.827501      -69.361961      -20.268957
 C         -25.177855      -72.118233      -21.442133
 C         -26.648514      -70.164085      -21.417189
 C         -25.803900      -71.096649      -22.328762
 H         -24.219746      -72.302322      -19.739594
 H         -23.336958      -71.315491      -20.744936
 H         -26.640739      -68.990372      -19.628311
 H         -25.204247      -68.631081      -20.748884
 H         -25.896336      -72.787773      -20.961050
 H         -24.508322      -72.759308      -22.076117
 H         -27.069967      -69.374947      -22.058367
 H         -27.471365      -70.752419      -20.963814
 H         -26.543669      -71.451332      -23.033531
 H         -25.050989      -70.434807      -22.879522
