20
 generated by VMD
 C         -33.641537      -96.104935      -25.354736
 N         -33.932034      -96.931511      -26.121077
 H         -34.757381      -94.328911      -27.307083
 H         -33.454277      -95.148697      -24.755760
 C         -34.834572      -94.004562      -28.359341
 C         -35.955044      -94.407692      -29.266531
 C         -33.538826      -93.635933      -29.059402
 C         -36.148083      -93.547737      -30.504753
 C         -33.781693      -92.783989      -30.320187
 C         -34.851421      -93.411667      -31.247334
 H         -36.823215      -94.355576      -28.638098
 H         -35.857399      -95.455742      -29.628237
 H         -32.838737      -93.083817      -28.493502
 H         -33.110130      -94.587807      -29.348927
 H         -36.488838      -92.506012      -30.294258
 H         -36.876171      -94.016212      -31.180826
 H         -32.886490      -92.669678      -30.924747
 H         -34.050224      -91.788376      -29.848778
 H         -34.961098      -92.692352      -32.150600
 H         -34.428890      -94.218269      -31.781649
