20
 generated by VMD
 C          -1.628013      -14.071145        1.640482
 N          -1.903113      -13.040446        1.322484
 H          -3.718259      -17.220137        1.308771
 H          -4.186580      -17.066446       -0.301687
 C          -4.605741      -17.066454        0.712208
 C          -5.235998      -15.783339        1.042308
 C          -5.566984      -18.256620        0.917547
 C          -6.403159      -15.491425        0.120300
 C          -6.821359      -18.029940        0.090355
 C          -7.455704      -16.658163        0.198626
 H          -4.499948      -14.961078        0.912669
 H          -5.504984      -15.801209        2.074986
 H          -4.972338      -19.236191        0.673070
 H          -5.765989      -18.404190        2.034097
 H          -5.983906      -15.540112       -0.958060
 H          -6.857505      -14.492043        0.334264
 H          -7.538884      -18.876642        0.276602
 H          -6.468731      -18.087702       -0.939596
 H          -8.242004      -16.485971       -0.519232
 H          -7.873036      -16.569183        1.202101
