20
 generated by VMD
 C         -38.298775     -110.529144      -36.185081
 N         -37.828598     -109.460129      -36.299431
 H         -40.014088     -113.450935      -36.086239
 H         -38.851337     -111.396904      -35.960327
 C         -41.037884     -113.154793      -35.925648
 C         -42.147224     -113.773018      -36.675945
 C         -41.480545     -112.049141      -35.012196
 C         -43.423187     -114.183655      -35.843662
 C         -42.752693     -112.456055      -34.085567
 C         -43.914188     -113.027855      -34.964294
 H         -41.829121     -114.744476      -37.066978
 H         -42.413658     -113.232498      -37.588497
 H         -40.583672     -111.824600      -34.373043
 H         -41.697605     -111.136002      -35.645390
 H         -43.075363     -114.862213      -35.073170
 H         -44.214668     -114.540581      -36.563225
 H         -43.186527     -111.582771      -33.579849
 H         -42.426327     -113.141151      -33.300777
 H         -44.730789     -113.399673      -34.451584
 H         -44.327950     -112.255386      -35.717648
