20
 generated by VMD
 C         -50.656845     -129.915863      -45.149597
 N         -51.301628     -129.267654      -44.502159
 H         -49.145634     -129.278625      -42.536266
 H         -50.133625     -130.687393      -45.649361
 C         -48.112442     -129.539078      -42.139378
 C         -47.996479     -130.893433      -41.478725
 C         -47.511295     -128.355499      -41.447624
 C         -46.529655     -131.104065      -41.193192
 C         -46.024361     -128.685593      -41.266731
 C         -45.836128     -129.985413      -40.480019
 H         -48.287868     -131.776367      -42.139061
 H         -48.562469     -130.942612      -40.641014
 H         -47.674541     -127.545128      -42.130196
 H         -47.984673     -128.212524      -40.377014
 H         -45.907429     -131.190613      -42.098763
 H         -46.508987     -131.999298      -40.666172
 H         -45.566566     -127.786072      -40.685246
 H         -45.442520     -128.829407      -42.205467
 H         -44.744999     -130.146240      -40.357220
 H         -46.182049     -129.713486      -39.506821
