20
 generated by VMD
 C         -52.856560     -147.280685      -45.440392
 N         -54.018452     -147.384613      -45.192024
 H         -55.188126     -147.382431      -48.569790
 H         -51.790730     -147.146088      -45.527592
 C         -54.630901     -146.473755      -48.704998
 C         -53.276325     -146.352325      -49.399609
 C         -55.115379     -145.340363      -47.964409
 C         -53.293491     -145.234909      -50.403763
 C         -55.184761     -144.211136      -48.906708
 C         -53.890511     -143.926041      -49.700367
 H         -53.042316     -147.317535      -49.834717
 H         -52.502335     -146.229370      -48.581581
 H         -55.882076     -145.618652      -47.293846
 H         -54.360802     -145.096817      -47.207600
 H         -54.013405     -145.474762      -51.063110
 H         -52.317577     -145.203690      -50.825466
 H         -55.605278     -143.338287      -48.443813
 H         -55.877655     -144.560120      -49.809654
 H         -54.110722     -143.180359      -50.528839
 H         -53.038834     -143.458054      -49.204578
