20
 generated by VMD
 C         -24.386286      -69.962204      -16.548725
 N         -24.517138      -70.420013      -15.470522
 H         -23.814295      -67.332436      -19.002842
 H         -24.229759      -69.580750      -17.565403
 C         -24.447699      -67.927856      -19.618265
 C         -23.815594      -68.726517      -20.859142
 C         -25.857973      -67.716080      -19.414803
 C         -24.677525      -69.949905      -21.156433
 C         -26.623232      -68.868828      -19.851887
 C         -26.073051      -69.515678      -21.146492
 H         -22.738201      -68.990074      -20.726023
 H         -23.974930      -67.945465      -21.666672
 H         -26.162325      -67.503410      -18.322559
 H         -26.170519      -66.858398      -20.055742
 H         -24.281635      -70.805870      -20.565306
 H         -24.387922      -70.222397      -22.150206
 H         -27.607023      -68.584091      -20.101679
 H         -26.559124      -69.624107      -19.153944
 H         -26.653538      -70.408875      -21.385410
 H         -26.268803      -68.782753      -21.953892
