20
 generated by VMD
 C         -58.902275     -158.935516      -57.328121
 N         -58.943634     -158.130951      -58.227543
 H         -59.643284     -159.452988      -54.361916
 H         -58.797230     -159.656509      -56.517315
 C         -59.534134     -160.242325      -53.667789
 C         -58.485806     -160.191833      -52.623943
 C         -60.591209     -161.366913      -53.725552
 C         -58.947197     -160.834183      -51.239437
 C         -61.169197     -161.627319      -52.347668
 C         -60.007336     -161.987671      -51.388367
 H         -58.048801     -159.189911      -52.506386
 H         -57.552460     -160.857391      -53.002293
 H         -61.459587     -161.019424      -54.343544
 H         -60.162586     -162.246536      -54.113434
 H         -59.501583     -160.034622      -50.853355
 H         -57.984543     -161.233292      -50.722195
 H         -61.861538     -162.418976      -52.324467
 H         -61.697681     -160.746368      -52.019981
 H         -60.407429     -161.938614      -50.370171
 H         -59.368382     -162.948288      -51.689106
