20
 generated by VMD
 C         -51.153667     -127.861710      -41.559853
 N         -51.942883     -128.652191      -41.851582
 H         -47.395050     -127.949501      -40.768520
 H         -50.680920     -127.041870      -41.050320
 C         -46.526119     -127.428139      -40.901798
 C         -45.375252     -127.782616      -40.045235
 C         -46.813702     -125.896683      -41.118465
 C         -44.108730     -127.238907      -40.746140
 C         -45.560257     -125.453918      -41.896919
 C         -44.267860     -125.758530      -41.125000
 H         -45.448048     -128.835556      -40.017132
 H         -45.581535     -127.368874      -39.057083
 H         -47.718784     -125.890053      -41.623573
 H         -46.897106     -125.438202      -40.023376
 H         -44.156845     -127.754715      -41.765442
 H         -43.172180     -127.445076      -40.178120
 H         -45.820881     -124.418823      -42.173252
 H         -45.616272     -125.980026      -42.849754
 H         -43.386585     -125.570549      -41.854889
 H         -44.003204     -125.116898      -40.275524
