20
 generated by VMD
 C         -17.633429      -48.263432       -6.874126
 N         -17.057472      -47.353222       -6.600587
 H         -16.572334      -48.494652      -10.432281
 H         -15.484564      -48.686260      -11.925085
 C         -16.250837      -48.091080      -11.424233
 C         -15.765894      -46.717430      -11.134697
 C         -17.532602      -48.008415      -12.221393
 C         -15.490214      -45.933296      -12.427586
 C         -17.450138      -47.002968      -13.406043
 C         -16.805685      -45.651737      -13.143246
 H         -14.852120      -46.751469      -10.541774
 H         -16.479841      -46.162476      -10.477725
 H         -17.993858      -49.027508      -12.495564
 H         -18.310715      -47.609528      -11.505989
 H         -14.734487      -46.389217      -13.075810
 H         -15.067814      -44.950974      -12.140203
 H         -18.387028      -46.751335      -13.878337
 H         -16.872448      -47.601181      -14.073336
 H         -16.615213      -45.145428      -14.074140
 H         -17.415375      -44.977692      -12.608861
