20
 generated by VMD
 C         -26.873480      -72.062508      -17.529497
 N         -27.368984      -73.064186      -17.304924
 H         -24.670668      -70.203590      -18.570942
 H         -26.641949      -70.919243      -17.731501
 C         -24.959238      -70.535515      -19.571108
 C         -24.253111      -71.599472      -20.308872
 C         -25.738001      -69.393623      -20.468409
 C         -25.137018      -72.171356      -21.429789
 C         -26.702906      -70.071053      -21.542219
 C         -25.894684      -71.145737      -22.325861
 H         -24.129715      -72.433510      -19.659040
 H         -23.224447      -71.198639      -20.619474
 H         -26.154787      -68.680862      -19.750973
 H         -25.026583      -68.795509      -21.017569
 H         -25.829531      -72.918571      -21.090828
 H         -24.479195      -72.698059      -22.125658
 H         -27.106297      -69.313095      -22.325579
 H         -27.692410      -70.463722      -21.019941
 H         -26.515795      -71.820183      -22.903448
 H         -25.160458      -70.653854      -22.919189
