20
 generated by VMD
 C         -40.756752     -100.151184      -30.044790
 N         -40.725689     -100.335876      -28.907610
 H         -37.190327     -100.617470      -30.786858
 H         -40.658085     -100.073647      -31.107275
 C         -36.487469      -99.793388      -30.785498
 C         -35.977623      -99.629562      -32.176849
 C         -35.321487      -99.750824      -29.778698
 C         -34.945549      -98.565529      -32.511127
 C         -34.394596      -98.609169      -30.029741
 C         -33.845154      -98.561600      -31.504217
 H         -36.919865      -99.499329      -32.803596
 H         -35.608952     -100.591835      -32.494812
 H         -35.786827      -99.526924      -28.752220
 H         -34.843857     -100.704971      -29.687607
 H         -35.268345      -97.525192      -32.496021
 H         -34.413612      -98.649811      -33.530457
 H         -33.473179      -98.765198      -29.421518
 H         -34.750919      -97.653786      -29.770170
 H         -33.188374      -97.694000      -31.582155
 H         -33.287426      -99.529022      -31.690739
