20
 generated by VMD
 C         -31.448845      -77.635635      -26.280462
 N         -31.737425      -78.003830      -27.325035
 H         -29.239790      -79.282967      -24.131618
 H         -31.199064      -77.195549      -25.265478
 C         -28.922161      -79.743813      -23.200272
 C         -27.468712      -79.808617      -22.995157
 C         -29.831551      -80.766975      -22.667587
 C         -27.122053      -80.677460      -21.839565
 C         -29.282320      -81.500702      -21.458126
 C         -27.838900      -81.969810      -21.784037
 H         -27.010544      -78.771935      -22.812365
 H         -27.143826      -80.230095      -24.004320
 H         -30.828781      -80.330070      -22.429430
 H         -29.971514      -81.465370      -23.503551
 H         -27.184931      -80.085655      -20.959641
 H         -26.062014      -80.997215      -21.884993
 H         -29.844736      -82.455734      -21.242434
 H         -29.258869      -80.983200      -20.535372
 H         -27.552616      -82.727303      -20.989651
 H         -27.769495      -82.576294      -22.780718
