20
 generated by VMD
 C         -67.781700     -179.400864      -58.649837
 N         -68.293404     -180.175858      -57.951553
 H         -66.869102     -176.432983      -59.546486
 H         -67.217957     -178.708893      -59.278309
 C         -65.849846     -176.017838      -59.944389
 C         -66.125801     -174.963486      -61.023376
 C         -64.462715     -176.484985      -59.577602
 C         -65.058914     -173.864563      -60.934734
 C         -63.535488     -175.261368      -59.329823
 C         -63.621941     -174.328781      -60.552639
 H         -67.086426     -174.596268      -60.819675
 H         -66.166466     -175.251236      -62.073963
 H         -64.585564     -177.036575      -58.620049
 H         -64.036324     -177.264511      -60.334843
 H         -65.322250     -172.916794      -60.418671
 H         -64.967422     -173.563339      -61.991203
 H         -62.456059     -175.533737      -59.163193
 H         -63.813755     -174.702301      -58.425854
 H         -63.064308     -173.407455      -60.294502
 H         -63.286530     -174.922943      -61.454971
