20
 generated by VMD
 C         -20.018438      -56.142704      -16.738939
 N         -21.115028      -56.413059      -16.465097
 H         -21.843788      -59.429184      -17.304712
 H         -19.198629      -56.043510      -17.288866
 C         -22.235674      -60.085255      -16.563004
 C         -22.781910      -59.580727      -15.200113
 C         -21.993200      -61.511597      -16.598978
 C         -21.515085      -59.653053      -14.262533
 C         -20.903111      -61.858147      -15.560263
 C         -21.071802      -61.146076      -14.213380
 H         -23.599894      -60.223991      -14.872662
 H         -23.100498      -58.599266      -15.309641
 H         -22.997442      -61.967583      -16.367645
 H         -21.673380      -61.820312      -17.615438
 H         -21.727011      -59.277615      -13.198594
 H         -20.672218      -58.992268      -14.522543
 H         -19.899038      -61.680443      -15.966903
 H         -20.969627      -62.944366      -15.581925
 H         -21.753088      -61.721436      -13.527426
 H         -20.065327      -61.117054      -13.816604
