20
 generated by VMD
 C         -29.801342      -91.264442      -25.297411
 N         -28.988375      -92.041542      -24.950598
 H         -32.474819      -90.335182      -26.716871
 H         -30.409618      -90.364777      -25.687828
 C         -33.165264      -90.499054      -27.508997
 C         -34.185558      -91.545387      -27.318981
 C         -33.185818      -89.551605      -28.764565
 C         -35.593960      -90.943153      -27.567341
 C         -34.487915      -88.871758      -28.764711
 C         -35.620743      -89.940926      -28.759100
 H         -34.182331      -92.044159      -26.283588
 H         -33.953186      -92.329552      -28.042294
 H         -32.310757      -88.873291      -28.665949
 H         -33.069870      -90.142525      -29.689240
 H         -35.868729      -90.325974      -26.775290
 H         -36.446079      -91.552765      -27.809309
 H         -34.421387      -88.225052      -29.642111
 H         -34.477688      -88.104980      -28.011295
 H         -36.627567      -89.684990      -28.982018
 H         -35.390900      -90.552826      -29.614298
