20
 generated by VMD
 C         -40.974957     -119.337677      -34.801399
 N         -40.011730     -119.021378      -35.380688
 H         -43.480434     -117.333061      -36.267780
 H         -42.004715     -119.539154      -34.374386
 C         -43.935265     -117.364769      -37.207535
 C         -43.043407     -117.755066      -38.324108
 C         -45.309143     -116.755196      -37.600548
 C         -43.747684     -118.359383      -39.530682
 C         -45.896408     -117.470497      -38.784668
 C         -44.998772     -117.696899      -40.039715
 H         -42.385471     -118.540810      -37.964893
 H         -42.560535     -116.901604      -38.827507
 H         -46.044743     -116.769722      -36.713257
 H         -45.159046     -115.710991      -37.843781
 H         -44.298588     -119.302284      -39.383457
 H         -43.013622     -118.557541      -40.371628
 H         -46.926430     -117.098442      -38.992455
 H         -46.175488     -118.599876      -38.493710
 H         -45.550358     -118.393288      -40.784477
 H         -44.822594     -116.855179      -40.644196
