20
 generated by VMD
 C         -49.748528     -127.358879      -39.850361
 N         -48.986195     -126.701599      -39.285339
 H         -47.056202     -126.706055      -41.849201
 H         -50.266327     -128.053085      -40.492012
 C         -46.430882     -126.005547      -41.361637
 C         -45.282768     -126.441032      -40.423218
 C         -46.796295     -124.537643      -41.239620
 C         -44.005787     -125.447212      -40.554981
 C         -45.528542     -123.636520      -41.422546
 C         -44.403168     -124.024025      -40.536682
 H         -44.889435     -127.497025      -40.604897
 H         -45.742767     -126.320099      -39.431320
 H         -47.380505     -124.175255      -42.069351
 H         -47.246830     -124.444611      -40.136265
 H         -43.574341     -125.771080      -41.547676
 H         -43.250385     -125.734955      -39.769077
 H         -45.872410     -122.679726      -41.069927
 H         -45.171356     -123.567238      -42.476250
 H         -43.591412     -123.409828      -40.816563
 H         -44.620911     -123.718834      -39.493290
