20
 generated by VMD
 C         -10.639543      -39.615753       -6.925632
 N         -11.158627      -40.094765       -6.034688
 H         -13.413193      -40.810246       -9.110198
 H         -14.942609      -39.831696       -9.327065
 C         -14.516141      -40.861221       -9.236464
 C         -15.183374      -41.709892       -8.166391
 C         -14.796347      -41.531097      -10.604202
 C         -16.643993      -41.917103       -8.482086
 C         -16.183270      -42.013844      -10.909429
 C         -16.766207      -42.755592       -9.749818
 H         -15.175829      -41.181149       -7.252908
 H         -14.627732      -42.634880       -8.020769
 H         -14.440138      -40.882854      -11.374781
 H         -14.161752      -42.405506      -10.744154
 H         -17.141691      -40.943378       -8.560869
 H         -17.144094      -42.389317       -7.674836
 H         -16.202299      -42.678482      -11.821471
 H         -16.853783      -41.171532      -11.131495
 H         -17.806143      -43.044113       -9.962468
 H         -16.219202      -43.717171       -9.620321
