20
 generated by VMD
 C         -78.556175     -209.180664      -77.139351
 N         -77.878593     -209.671310      -77.945541
 H         -79.163330     -211.759186      -74.264214
 H         -79.213127     -208.756805      -76.400940
 C         -79.255150     -212.020065      -73.160271
 C         -78.027237     -212.270828      -72.364601
 C         -80.461182     -212.962662      -72.824394
 C         -78.238525     -212.567871      -70.890770
 C         -80.686905     -213.361557      -71.354355
 C         -79.398888     -213.708527      -70.656815
 H         -77.388344     -211.313217      -72.377480
 H         -77.395073     -212.967896      -72.963898
 H         -81.359322     -212.523529      -73.206779
 H         -80.104057     -213.920364      -73.348976
 H         -78.557549     -211.632050      -70.384811
 H         -77.309608     -212.789536      -70.395546
 H         -81.407623     -214.232635      -71.298058
 H         -81.132362     -212.622269      -70.789696
 H         -79.500000     -213.914520      -69.562958
 H         -79.011703     -214.644897      -71.019234
