20
 generated by VMD
 C         -60.205528     -156.221313      -54.666939
 N         -60.296936     -155.340881      -55.345646
 H         -59.765560     -157.311737      -51.469151
 H         -60.117729     -156.961456      -53.902664
 C         -58.845734     -157.249390      -52.100986
 C         -58.136391     -155.949966      -52.282528
 C         -57.954964     -158.453827      -52.014114
 C         -57.176155     -155.742874      -51.143360
 C         -56.965099     -158.298157      -50.912678
 C         -56.265991     -157.001434      -51.006184
 H         -58.784195     -154.985367      -52.259186
 H         -57.544437     -156.025620      -53.209503
 H         -58.476440     -159.389297      -51.698387
 H         -57.409588     -158.545410      -52.899567
 H         -57.599159     -155.752869      -50.156250
 H         -56.631279     -154.758179      -51.221737
 H         -56.184391     -159.066818      -51.237766
 H         -57.279945     -158.469162      -49.923054
 H         -55.684978     -156.905731      -50.114151
 H         -55.649105     -157.017715      -51.970993
