20
 generated by VMD
 C         -38.353130     -109.709099      -36.488270
 N         -37.618050     -109.025810      -35.854641
 H         -41.123215     -111.405739      -37.103310
 H         -39.097366     -110.279114      -37.005951
 C         -41.471279     -111.691765      -36.115299
 C         -42.006004     -113.075920      -36.354954
 C         -42.001991     -110.713188      -35.172714
 C         -42.243423     -113.788261      -35.037193
 C         -42.009811     -111.471718      -33.752048
 C         -42.815460     -112.814285      -33.843227
 H         -41.426407     -113.717094      -37.022491
 H         -42.951778     -112.936935      -37.009991
 H         -41.194775     -109.863968      -35.139343
 H         -43.048393     -110.376785      -35.420315
 H         -41.309986     -114.126991      -34.618401
 H         -42.912018     -114.623108      -35.161148
 H         -42.495628     -110.802872      -33.063877
 H         -41.000465     -111.608849      -33.431797
 H         -42.776684     -113.422523      -32.962997
 H         -43.984829     -112.577888      -34.044186
