20
 generated by VMD
 C         -78.829536     -204.157669      -70.382004
 N         -79.867989     -204.683899      -70.538109
 H         -76.596405     -203.390213      -68.558014
 H         -77.839317     -203.726746      -70.327400
 C         -75.766403     -203.242493      -69.197800
 C         -75.777657     -201.901764      -69.955383
 C         -74.459724     -203.960785      -69.008461
 C         -74.551903     -201.530029      -70.734436
 C         -73.395203     -202.910126      -68.923630
 C         -73.257309     -202.370575      -70.340065
 H         -75.806076     -201.147369      -69.097717
 H         -76.709389     -201.890167      -70.475098
 H         -74.480896     -204.703308      -68.142502
 H         -74.366379     -204.669205      -69.901886
 H         -74.393280     -200.434723      -70.608765
 H         -74.760910     -201.717056      -71.790833
 H         -72.424637     -203.335739      -68.794937
 H         -73.440338     -202.172775      -68.112022
 H         -72.232376     -201.826340      -70.422043
 H         -73.031273     -203.143921      -71.114243
