20
 generated by VMD
 C         -30.831839      -75.564354      -21.379454
 N         -31.907547      -75.219994      -21.046455
 H         -27.341654      -75.282829      -19.600887
 H         -29.830750      -75.987152      -21.751219
 C         -26.861004      -74.870087      -20.472597
 C         -26.555351      -76.037315      -21.318905
 C         -25.828175      -73.782768      -20.387075
 C         -26.030758      -75.682159      -22.693989
 C         -25.351292      -73.313484      -21.768734
 C         -24.917887      -74.639648      -22.610760
 H         -27.452547      -76.560829      -21.360512
 H         -25.721441      -76.527855      -20.830006
 H         -26.271318      -72.993767      -19.654524
 H         -24.896990      -74.077507      -19.857710
 H         -26.799580      -75.290550      -23.318518
 H         -25.623581      -76.593369      -23.136307
 H         -24.450184      -72.667686      -21.783644
 H         -26.205763      -72.935364      -22.396954
 H         -24.539606      -74.313789      -23.613960
 H         -23.995262      -75.174965      -22.265539
