20
 generated by VMD
 C         -50.847557     -129.657440      -46.045818
 N         -50.869442     -130.447449      -45.179665
 H         -47.736023     -131.414139      -44.311371
 H         -50.710518     -128.896362      -46.844181
 C         -48.026894     -131.522964      -43.202606
 C         -48.315746     -132.733612      -42.431366
 C         -47.920368     -130.153091      -42.445171
 C         -47.504490     -132.852829      -41.130596
 C         -47.184048     -130.311554      -41.154453
 C         -47.542271     -131.546249      -40.410637
 H         -48.143074     -133.693817      -42.868877
 H         -49.367851     -132.611130      -42.243118
 H         -47.482613     -129.383026      -43.031509
 H         -48.899555     -129.871887      -42.242981
 H         -46.409496     -133.087021      -41.235722
 H         -47.808167     -133.643692      -40.434776
 H         -47.376068     -129.415558      -40.608494
 H         -46.163857     -130.117950      -41.391998
 H         -46.781857     -131.570358      -39.539200
 H         -48.561642     -131.337296      -40.087051
