20
 generated by VMD
 C         -33.623394      -96.529373      -25.783449
 N         -34.642712      -96.542152      -26.327013
 H         -35.038673      -94.240608      -27.355946
 H         -32.729614      -96.736763      -25.316130
 C         -35.004421      -94.140427      -28.425480
 C         -35.965885      -94.780754      -29.349176
 C         -33.615593      -93.885490      -29.001570
 C         -36.098648      -93.938011      -30.553871
 C         -33.761124      -92.961517      -30.218056
 C         -34.693676      -93.639214      -31.232939
 H         -36.908024      -94.992531      -28.800167
 H         -35.523678      -95.772514      -29.665920
 H         -32.906464      -93.485313      -28.288141
 H         -33.075985      -94.782982      -29.425982
 H         -36.519005      -92.914894      -30.344839
 H         -36.743099      -94.350746      -31.304348
 H         -32.839722      -92.669350      -30.748796
 H         -34.156731      -91.977631      -29.857893
 H         -34.666447      -92.933701      -32.077374
 H         -33.990437      -94.524727      -31.486975
