20
 generated by VMD
 C         -60.058830     -156.591568      -55.645786
 N         -60.894482     -156.042435      -56.141491
 H         -59.797226     -157.394470      -52.761639
 H         -59.309555     -157.180283      -55.176987
 C         -58.765774     -157.921722      -52.870819
 C         -57.618214     -156.991714      -52.660191
 C         -58.498959     -159.326996      -52.359798
 C         -57.432671     -157.019531      -51.169788
 C         -58.129677     -159.330765      -50.906422
 C         -57.114784     -158.281372      -50.513512
 H         -57.861454     -155.929169      -53.051552
 H         -56.601574     -157.217621      -53.014870
 H         -59.360317     -159.907501      -52.721077
 H         -57.600182     -159.816971      -52.877041
 H         -58.311947     -156.502579      -50.765091
 H         -56.537632     -156.298080      -51.018436
 H         -57.967552     -160.333923      -50.469913
 H         -58.999599     -159.035080      -50.387360
 H         -57.172882     -158.119171      -49.485733
 H         -56.084534     -158.724594      -50.849388
