20
 generated by VMD
 C         -31.055143      -74.964729      -21.665775
 N         -31.694117      -75.919006      -21.761787
 H         -28.557583      -76.309814      -20.856213
 H         -30.513678      -73.989349      -21.494614
 C         -27.531258      -76.053406      -21.181730
 C         -26.732618      -77.102486      -21.950846
 C         -26.850386      -74.845825      -20.608883
 C         -25.722775      -76.456818      -22.852043
 C         -25.851315      -74.213142      -21.628483
 C         -24.943558      -75.349228      -22.267191
 H         -27.524641      -77.761955      -22.456705
 H         -26.274595      -77.854530      -21.301760
 H         -27.699703      -74.044922      -20.365885
 H         -26.272079      -75.112892      -19.639309
 H         -26.286081      -76.198219      -23.765547
 H         -25.000170      -77.236801      -23.110918
 H         -25.288496      -73.336266      -21.303526
 H         -26.401913      -73.829185      -22.523897
 H         -24.086782      -74.968483      -22.827589
 H         -24.356653      -75.900574      -21.506260
