20
 generated by VMD
 C         -21.743160      -65.924957      -16.728802
 N         -20.943411      -66.596725      -16.175556
 H         -24.067169      -64.127510      -17.981173
 H         -22.449453      -65.612885      -17.396252
 C         -24.446766      -65.077026      -18.448673
 C         -24.309141      -65.485023      -19.904413
 C         -25.516737      -65.760239      -17.649218
 C         -24.435143      -67.095856      -20.135485
 C         -25.189613      -67.289474      -17.671980
 C         -25.408449      -67.756447      -19.179775
 H         -23.360569      -65.292923      -20.321684
 H         -25.102686      -64.864632      -20.523216
 H         -25.352976      -65.542908      -16.564205
 H         -26.398928      -65.517403      -18.221813
 H         -23.431057      -67.496094      -20.069790
 H         -24.714085      -67.359070      -21.113186
 H         -25.877373      -67.765106      -16.949635
 H         -24.195934      -67.616432      -17.495724
 H         -25.281616      -68.866379      -19.212597
 H         -26.496775      -67.628685      -19.525967
