20
 generated by VMD
 C         -19.642847      -57.680908      -16.952616
 N         -19.248413      -58.217167      -17.906261
 H         -22.407757      -59.615463      -17.081558
 H         -20.344923      -57.084747      -16.189039
 C         -22.612379      -60.584164      -16.531969
 C         -23.841585      -61.384010      -16.621305
 C         -21.800764      -60.793060      -15.253171
 C         -23.850237      -62.855045      -16.193974
 C         -21.522215      -62.321129      -15.072804
 C         -22.842113      -63.139900      -15.104643
 H         -24.351818      -61.279259      -17.617178
 H         -24.649399      -60.813812      -15.950720
 H         -20.843349      -60.291950      -15.515621
 H         -22.284155      -60.400074      -14.339795
 H         -23.704370      -63.450058      -17.091995
 H         -24.836130      -63.192959      -15.885090
 H         -21.002438      -62.525692      -14.171160
 H         -20.896112      -62.736652      -15.889388
 H         -22.634598      -64.166756      -15.067488
 H         -23.422939      -62.952599      -14.181623
