20
 generated by VMD
 C         -30.849031      -78.417915      -25.560579
 N         -31.256216      -77.455620      -25.039558
 H         -29.312820      -77.300766      -23.012270
 H         -30.430449      -79.353584      -25.843475
 C         -28.813379      -78.155907      -22.660204
 C         -27.428085      -78.247932      -23.109848
 C         -29.536419      -79.293571      -22.119928
 C         -26.601067      -79.280022      -22.343540
 C         -28.554676      -80.150688      -21.254793
 C         -27.381367      -80.549934      -22.086180
 H         -26.985319      -77.311630      -22.962484
 H         -27.497715      -78.533279      -24.125141
 H         -30.450289      -79.027191      -21.547945
 H         -29.919333      -79.942406      -22.918970
 H         -26.040771      -78.787468      -21.519806
 H         -25.832914      -79.604935      -23.017681
 H         -29.080658      -81.081238      -20.966351
 H         -28.253265      -79.625389      -20.435354
 H         -26.746895      -81.334045      -21.572020
 H         -27.632998      -80.923706      -23.062300
