20
 generated by VMD
 C         -33.631775      -96.560570      -25.815052
 N         -34.666615      -96.553383      -26.303310
 H         -35.142143      -94.145508      -27.329613
 H         -32.628311      -96.802483      -25.315937
 C         -35.001801      -94.168335      -28.413418
 C         -35.974476      -94.801773      -29.365334
 C         -33.607391      -93.843628      -29.019249
 C         -36.094486      -93.927811      -30.605572
 C         -33.747833      -92.965553      -30.215515
 C         -34.656517      -93.677650      -31.177565
 H         -36.880924      -94.943184      -28.788507
 H         -35.609943      -95.729111      -29.717550
 H         -32.835720      -93.487099      -28.322397
 H         -33.342171      -94.843956      -29.326271
 H         -36.607101      -92.982285      -30.369417
 H         -36.802040      -94.429306      -31.312830
 H         -32.880348      -92.616486      -30.857264
 H         -34.156376      -92.029060      -29.904524
 H         -34.774906      -92.977509      -32.138607
 H         -34.101772      -94.506241      -31.475025
