20
 generated by VMD
 C         -19.409042      -60.772907      -17.737272
 N         -20.180342      -59.905064      -17.763048
 H         -22.849705      -59.969078      -15.916165
 H         -18.599569      -61.392445      -17.642273
 C         -23.083702      -61.065487      -16.042698
 C         -23.079298      -61.706829      -17.455179
 C         -23.803305      -61.853729      -15.019580
 C         -22.942505      -63.172005      -17.545574
 C         -23.020435      -63.201878      -14.967963
 C         -23.265532      -63.998524      -16.290094
 H         -22.233671      -61.247463      -17.903803
 H         -23.922071      -61.381866      -17.948786
 H         -23.786236      -61.233707      -14.067111
 H         -24.866415      -61.996098      -15.251752
 H         -21.823286      -63.331478      -17.653202
 H         -23.422516      -63.710434      -18.429012
 H         -23.323971      -63.827648      -14.113184
 H         -21.972277      -63.032116      -14.704267
 H         -22.646082      -64.895355      -16.225351
 H         -24.255304      -64.412605      -16.384544
