20
 generated by VMD
 C         -29.552397      -89.619438      -25.047375
 N         -29.186197      -89.128281      -26.073238
 H         -32.099056      -90.630386      -26.719009
 H         -29.793930      -89.853287      -24.054007
 C         -32.888351      -90.488892      -27.411066
 C         -34.124714      -90.990036      -27.031559
 C         -32.845955      -89.542183      -28.523924
 C         -34.860176      -89.756058      -26.381725
 C         -33.562183      -88.308517      -28.128813
 C         -34.893024      -88.523979      -27.348902
 H         -34.080727      -91.840324      -26.337793
 H         -34.707218      -91.404274      -27.846220
 H         -31.820314      -89.411957      -28.934530
 H         -33.364643      -90.076508      -29.370234
 H         -34.309181      -89.338150      -25.479818
 H         -35.957966      -90.031075      -26.187521
 H         -33.797070      -87.646378      -29.009577
 H         -32.823654      -87.783035      -27.503689
 H         -35.336517      -87.637611      -27.023014
 H         -35.618309      -88.704361      -28.178040
