20
 generated by VMD
 C         -49.834431     -142.219299      -45.146896
 N         -49.037842     -143.016449      -45.340599
 H         -52.005135     -139.029785      -46.080017
 H         -50.649780     -141.474335      -45.126877
 C         -52.434616     -140.024429      -46.326721
 C         -52.414074     -140.157242      -47.939407
 C         -53.625881     -140.358475      -45.637459
 C         -52.879135     -141.605606      -48.275833
 C         -54.222897     -141.723999      -46.180489
 C         -54.221451     -141.923553      -47.680012
 H         -51.375870     -140.008942      -48.369007
 H         -53.108471     -139.333145      -48.193874
 H         -53.526558     -140.396713      -44.579800
 H         -54.397274     -139.639084      -45.566002
 H         -52.085304     -142.311035      -47.816479
 H         -53.022629     -141.782288      -49.415428
 H         -55.199554     -141.870209      -45.632336
 H         -53.581703     -142.563553      -45.867252
 H         -54.534481     -142.975754      -47.903824
 H         -54.944988     -141.161545      -48.148590
