20
 generated by VMD
 C          -3.629428      -20.099436        3.373691
 N          -4.100448      -19.153547        3.013766
 H          -5.216889      -19.818205       -0.085237
 H          -6.156228      -21.086378       -0.743693
 C          -6.064649      -19.984373       -0.769205
 C          -5.721707      -19.554724       -2.147097
 C          -7.355925      -19.378870       -0.299156
 C          -6.811081      -19.782690       -3.161344
 C          -8.457010      -19.672478       -1.322366
 C          -8.109050      -19.112228       -2.750592
 H          -4.809851      -20.042791       -2.480514
 H          -5.468760      -18.507755       -2.187388
 H          -7.624857      -19.890224        0.669054
 H          -7.310824      -18.244122       -0.120520
 H          -6.931608      -20.893396       -3.417356
 H          -6.485216      -19.321579       -4.104891
 H          -9.385077      -19.204008       -1.025559
 H          -8.677040      -20.737675       -1.496987
 H          -8.961146      -19.312754       -3.410377
 H          -8.047123      -18.039108       -2.758186
