20
 generated by VMD
 C         -40.372746     -118.152977      -34.789429
 N         -39.417290     -117.531044      -35.049236
 H         -42.375458     -116.324852      -36.488850
 H         -41.032383     -119.023872      -34.461224
 C         -43.177193     -116.615700      -37.217815
 C         -42.835602     -116.976685      -38.694992
 C         -44.617397     -116.289146      -36.938858
 C         -44.037365     -117.723846      -39.406242
 C         -45.711460     -116.993324      -37.854462
 C         -45.324627     -116.972275      -39.352070
 H         -41.890102     -117.627800      -38.724716
 H         -42.522095     -116.012466      -39.259506
 H         -44.641800     -116.704819      -35.913467
 H         -44.872757     -115.252007      -36.837170
 H         -44.122208     -118.641525      -38.877983
 H         -43.719181     -117.992775      -40.354355
 H         -46.707466     -116.363373      -37.634972
 H         -45.854118     -118.090858      -37.792267
 H         -46.148003     -117.553322      -39.975334
 H         -45.133667     -115.975708      -39.763596
