20
 generated by VMD
 C          -2.020866      -16.610033        2.338748
 N          -1.539729      -17.520124        2.767705
 H          -5.244151      -16.458269        0.683396
 H          -4.616286      -17.809439       -0.324895
 C          -5.547909      -17.243341        0.027328
 C          -6.318793      -16.464752       -1.088541
 C          -6.477871      -18.214048        0.724493
 C          -7.229255      -17.398708       -1.941247
 C          -7.141060      -19.218098       -0.184777
 C          -8.001325      -18.407530       -1.154413
 H          -5.550322      -15.905288       -1.700536
 H          -6.889328      -15.684318       -0.626863
 H          -5.933012      -18.759205        1.468744
 H          -7.272527      -17.699333        1.313556
 H          -6.573545      -17.963463       -2.600782
 H          -7.895602      -16.842394       -2.526888
 H          -7.792616      -19.969263        0.307687
 H          -6.420057      -19.791882       -0.777498
 H          -8.616077      -19.047888       -1.800438
 H          -8.662161      -17.805475       -0.467089
