20
 generated by VMD
 C         -10.334170      -35.790501       -8.172276
 N         -10.107435      -35.604042       -9.250184
 H         -13.311093      -37.158157       -6.672719
 H         -14.674694      -37.906605       -5.824986
 C         -14.084200      -37.986183       -6.707869
 C         -13.128447      -39.204483       -6.656013
 C         -15.037439      -38.066700       -7.910337
 C         -13.851302      -40.502846       -6.891491
 C         -15.805772      -39.299255       -7.953959
 C         -14.793633      -40.432690       -8.063062
 H         -12.636452      -39.208733       -5.699502
 H         -12.440966      -39.097370       -7.457934
 H         -15.655543      -37.168358       -7.834558
 H         -14.369920      -38.045570       -8.814136
 H         -14.465212      -40.786789       -5.965594
 H         -13.096745      -41.251312       -7.175408
 H         -16.522293      -39.300331       -8.807916
 H         -16.393044      -39.385315       -7.012285
 H         -15.323674      -41.407379       -8.088277
 H         -14.217793      -40.333851       -9.009212
