20
 generated by VMD
 C         -47.938965     -134.663666      -46.639984
 N         -47.938042     -134.387390      -47.783463
 H         -50.233852     -134.482239      -45.005054
 H         -47.895355     -134.926300      -45.608463
 C         -50.630703     -135.418365      -44.469727
 C         -51.111443     -136.627502      -45.189365
 C         -51.175335     -135.224976      -43.077415
 C         -51.044868     -137.865219      -44.361702
 C         -51.057793     -136.484833      -42.263798
 C         -51.775799     -137.634705      -43.029381
 H         -50.574726     -136.782150      -46.112713
 H         -52.206619     -136.326324      -45.447136
 H         -50.520760     -134.436951      -42.776760
 H         -52.228279     -134.803040      -43.050266
 H         -50.094704     -138.315826      -44.041435
 H         -51.633163     -138.540558      -44.924316
 H         -51.521000     -136.378189      -41.264210
 H         -49.991543     -136.649155      -42.031586
 H         -51.861050     -138.521240      -42.294464
 H         -52.833023     -137.534683      -43.094803
