20
 generated by VMD
 C         -79.545250     -206.513992      -75.081207
 N         -79.897095     -206.265884      -74.035652
 H         -78.658714     -206.718567      -71.280281
 H         -79.405342     -206.953308      -76.104401
 C         -77.719910     -206.740280      -70.780746
 C         -76.472282     -205.939758      -71.284790
 C         -77.247185     -208.045975      -70.098183
 C         -75.226768     -205.885941      -70.390800
 C         -76.112190     -207.944092      -69.140259
 C         -74.955711     -207.250534      -69.785583
 H         -76.757828     -204.827896      -71.332787
 H         -76.466072     -206.315826      -72.304512
 H         -78.053032     -208.420944      -69.490143
 H         -77.024391     -208.776138      -70.899864
 H         -75.312363     -205.119461      -69.567078
 H         -74.326263     -205.426727      -70.938927
 H         -75.888908     -208.993454      -68.746239
 H         -76.411491     -207.439987      -68.248734
 H         -74.250000     -207.012573      -68.982689
 H         -74.334961     -208.041061      -70.311417
