20
 generated by VMD
 C         -47.536522     -138.196823      -45.794525
 N         -47.197479     -137.982407      -46.861073
 H         -50.570267     -137.410263      -44.890953
 H         -47.924973     -138.246140      -44.790680
 C         -51.377956     -138.140442      -44.926369
 C         -51.432350     -138.893494      -46.316822
 C         -52.621914     -137.926056      -44.078350
 C         -52.674088     -139.884277      -46.390675
 C         -53.709068     -139.003036      -44.271366
 C         -53.921452     -139.255112      -45.855865
 H         -50.571438     -139.660675      -46.457474
 H         -51.435616     -138.181549      -47.127682
 H         -52.315197     -137.915787      -43.018204
 H         -53.151833     -137.076065      -44.423111
 H         -52.310856     -140.815521      -45.800564
 H         -52.927589     -140.102859      -47.452572
 H         -54.636017     -138.654617      -43.798771
 H         -53.235218     -139.870178      -43.795101
 H         -54.845974     -139.912277      -45.870918
 H         -54.134037     -138.270950      -46.355282
