20
 generated by VMD
 C         -69.773270     -180.352600      -61.530567
 N         -69.200005     -180.892075      -62.408787
 H         -67.044716     -180.048279      -59.265976
 H         -70.266891     -179.927399      -60.703960
 C         -66.295601     -179.331284      -59.711700
 C         -65.384552     -179.527985      -60.910172
 C         -65.906906     -178.150909      -58.840904
 C         -65.277359     -178.241440      -61.794937
 C         -65.699623     -176.897537      -59.693001
 C         -64.793846     -177.152267      -60.897831
 H         -65.773193     -180.393036      -61.442451
 H         -64.424988     -179.916672      -60.676365
 H         -66.477028     -177.969833      -57.871532
 H         -64.896141     -178.291672      -58.540241
 H         -66.363533     -178.094681      -62.028828
 H         -64.505272     -178.442047      -62.523384
 H         -65.521294     -175.988983      -59.122471
 H         -66.685020     -176.650330      -60.191147
 H         -64.749146     -176.142136      -61.388622
 H         -63.755707     -177.173538      -60.481163
