20
 generated by VMD
 C         -40.871147     -102.228500      -34.985508
 N         -41.595348     -102.052177      -35.897045
 H         -39.833305     -104.252823      -31.892963
 H         -40.559036     -102.386414      -33.942177
 C         -38.775074     -104.701492      -31.885977
 C         -37.820610     -104.061447      -32.841072
 C         -38.276878     -105.757072      -31.071928
 C         -36.567257     -103.737259      -32.087669
 C         -36.847160     -105.596634      -30.337959
 C         -35.857338     -104.939423      -31.288050
 H         -38.408241     -103.391502      -33.413651
 H         -37.402943     -104.746376      -33.571674
 H         -39.000595     -105.862511      -30.258972
 H         -38.177277     -106.793083      -31.516706
 H         -36.828060     -102.968452      -31.340302
 H         -35.912857     -103.192017      -32.769047
 H         -36.672394     -106.576576      -29.974087
 H         -37.078178     -104.934669      -29.382236
 H         -35.051075     -104.563019      -30.750471
 H         -35.440933     -105.663307      -32.032829
