20
 generated by VMD
 C         -50.778923     -129.163727      -44.744278
 N         -50.945084     -130.212143      -44.267231
 H         -49.129314     -128.069351      -41.411449
 H         -50.601788     -128.175400      -45.127167
 C         -48.170166     -128.585632      -41.283894
 C         -47.855350     -130.031754      -41.010952
 C         -47.100231     -127.606888      -40.804111
 C         -46.418354     -130.445374      -41.426239
 C         -45.676735     -127.886810      -41.352535
 C         -45.368023     -129.379135      -41.031685
 H         -48.544151     -130.818726      -41.421764
 H         -47.937611     -130.111649      -39.907936
 H         -47.378593     -126.591995      -41.148445
 H         -47.149200     -127.676811      -39.657654
 H         -46.470348     -130.490875      -42.528095
 H         -46.199436     -131.411163      -40.869045
 H         -44.822929     -127.331299      -40.980949
 H         -45.623478     -127.805656      -42.529202
 H         -44.396996     -129.628494      -41.456867
 H         -45.109539     -129.560760      -39.915722
