20
 generated by VMD
 C         -26.878967      -71.861794      -17.538439
 N         -27.155201      -72.962997      -17.292419
 H         -24.110916      -69.961212      -18.943504
 H         -26.676804      -70.933472      -17.856092
 C         -24.900763      -70.357697      -19.595270
 C         -24.337374      -71.511551      -20.364222
 C         -25.821564      -69.369209      -20.283869
 C         -25.183393      -72.129700      -21.455454
 C         -26.616535      -70.160263      -21.399534
 C         -25.815369      -71.095581      -22.321293
 H         -24.249235      -72.317215      -19.653191
 H         -23.252592      -71.191582      -20.608538
 H         -26.626570      -68.987114      -19.617941
 H         -25.241121      -68.592911      -20.741190
 H         -25.859301      -72.804764      -20.998505
 H         -24.531660      -72.710052      -22.113750
 H         -27.002180      -69.341599      -22.124241
 H         -27.543415      -70.761414      -20.939978
 H         -26.510189      -71.498573      -23.056826
 H         -25.122570      -70.536621      -22.921267
