20
 generated by VMD
 C         -78.019440     -210.233307      -76.247345
 N         -77.184181     -211.003189      -76.224174
 H         -80.420792     -212.977493      -75.053108
 H         -78.883652     -209.484589      -76.232185
 C         -80.250153     -213.179565      -73.992439
 C         -78.798019     -213.349960      -73.685760
 C         -81.271698     -214.076141      -73.335678
 C         -78.661018     -213.109268      -72.114731
 C         -81.175125     -213.795441      -71.859161
 C         -79.709869     -213.898788      -71.393250
 H         -78.111656     -212.751541      -74.282532
 H         -78.665169     -214.447693      -73.816772
 H         -82.308823     -214.056808      -73.705017
 H         -80.957771     -215.094940      -73.510414
 H         -78.526665     -212.082672      -71.763855
 H         -77.600845     -213.457275      -71.919945
 H         -81.843933     -214.550110      -71.269859
 H         -81.587860     -212.736847      -71.744148
 H         -79.557922     -213.592316      -70.229225
 H         -79.405571     -214.975876      -71.416176
