20
 generated by VMD
 C         -46.700798     -124.698776      -37.572086
 N         -46.921288     -124.615120      -36.410290
 H         -44.673038     -122.151665      -37.700218
 H         -46.658684     -124.807068      -38.620865
 C         -44.705391     -122.158501      -38.842876
 C         -43.503105     -122.242432      -39.594913
 C         -45.928268     -121.447876      -39.415085
 C         -43.658878     -122.422012      -41.152550
 C         -46.100109     -121.654854      -40.907551
 C         -44.713314     -121.519691      -41.697693
 H         -43.029911     -123.016701      -39.055061
 H         -42.931129     -121.329018      -39.446815
 H         -46.830856     -121.612518      -38.861946
 H         -45.698811     -120.359772      -39.347507
 H         -43.842228     -123.478241      -41.345428
 H         -42.673321     -122.302513      -41.797482
 H         -46.892212     -121.128471      -41.479858
 H         -46.256184     -122.747391      -40.988400
 H         -44.756031     -121.683105      -42.797142
 H         -44.278713     -120.553322      -41.439297
