20
 generated by VMD
 C         -12.699997      -31.199171       -8.288813
 N         -12.238385      -30.289196       -7.869138
 H         -11.599325      -33.709949       -7.577124
 H         -12.491111      -33.084400       -6.240892
 C         -11.707391      -33.812748       -6.493264
 C         -10.463820      -33.402756       -5.777405
 C         -12.288946      -35.195145       -6.056431
 C         -10.467544      -33.635994       -4.272342
 C         -12.252095      -35.432682       -4.498391
 C         -10.908756      -35.026089       -3.909611
 H         -10.217041      -32.358780       -5.982877
 H          -9.551637      -33.922821       -6.156631
 H         -13.263883      -35.402950       -6.542531
 H         -11.624457      -35.970253       -6.452343
 H         -11.133456      -32.875717       -3.847167
 H          -9.479148      -33.271538       -3.977527
 H         -12.491027      -36.562927       -4.324315
 H         -13.027303      -34.913055       -3.976885
 H         -10.916451      -35.241596       -2.804085
 H         -10.174136      -35.686363       -4.341333
