20
 generated by VMD
 C         -20.338009      -57.292095      -16.652863
 N         -19.597471      -56.394035      -16.663074
 H         -22.629406      -60.012104      -17.772924
 H         -21.135384      -58.180412      -16.824194
 C         -22.581518      -60.620766      -16.915630
 C         -23.573126      -60.608620      -15.761542
 C         -21.208328      -61.243992      -16.769535
 C         -22.810383      -60.572498      -14.561930
 C         -21.001341      -62.092880      -15.503590
 C         -22.089123      -61.908752      -14.437290
 H         -24.119078      -61.529541      -15.722746
 H         -24.196177      -59.693031      -15.814084
 H         -21.058708      -61.887619      -17.650822
 H         -20.404222      -60.483601      -16.853546
 H         -23.342375      -60.307297      -13.648589
 H         -22.034775      -59.724251      -14.601214
 H         -20.077738      -61.741505      -14.986196
 H         -20.995331      -63.108574      -15.857101
 H         -22.692232      -62.806129      -14.294359
 H         -21.537163      -61.796787      -13.483983
