20
 generated by VMD
 C         -58.956547     -158.885651      -57.341293
 N         -58.892857     -158.148346      -58.224648
 H         -59.626572     -159.362869      -54.291054
 H         -59.000362     -159.536392      -56.483536
 C         -59.599102     -160.234528      -53.668415
 C         -58.467419     -160.230026      -52.572655
 C         -60.614777     -161.322495      -53.742992
 C         -58.912277     -160.720673      -51.238056
 C         -61.120594     -161.589890      -52.329308
 C         -59.936527     -161.991348      -51.382107
 H         -58.070633     -159.242661      -52.425587
 H         -57.654907     -160.839508      -53.112263
 H         -61.467514     -161.218979      -54.367935
 H         -60.109379     -162.176620      -54.185101
 H         -59.352947     -159.999542      -50.619343
 H         -58.100613     -160.998962      -50.427006
 H         -61.874508     -162.362640      -52.395058
 H         -61.636120     -160.688568      -51.966835
 H         -60.371368     -162.429138      -50.443218
 H         -59.445332     -162.947281      -51.859909
