20
 generated by VMD
 C         -68.808693     -180.204163      -62.328995
 N         -69.794952     -180.839386      -62.217773
 H         -66.893875     -180.595291      -59.111404
 H         -67.955933     -179.573181      -62.498158
 C         -66.389267     -179.758514      -59.713169
 C         -65.538765     -180.033066      -60.868343
 C         -66.166496     -178.496765      -58.929310
 C         -65.176308     -178.847321      -61.771179
 C         -66.255974     -177.339020      -59.875019
 C         -65.165001     -177.473267      -61.000755
 H         -65.981834     -180.807266      -61.434055
 H         -64.683464     -180.463730      -60.483440
 H         -67.004753     -178.259384      -58.303749
 H         -65.242332     -178.621567      -58.281334
 H         -65.555817     -178.839325      -62.768303
 H         -64.123802     -178.964767      -61.899658
 H         -65.969414     -176.414658      -59.273678
 H         -67.296120     -177.256134      -60.259766
 H         -65.570007     -176.637299      -61.584114
 H         -64.271942     -177.311539      -60.537346
