20
 generated by VMD
 C          -3.682666      -18.996675        2.362546
 N          -3.283478      -18.282036        3.119972
 H          -5.526398      -20.374847        0.235482
 H          -6.257347      -21.264877       -1.155464
 C          -6.170550      -20.277435       -0.640506
 C          -5.534078      -19.202452       -1.526929
 C          -7.630417      -19.929447       -0.172047
 C          -6.402746      -18.917635       -2.736326
 C          -8.596971      -19.459503       -1.301526
 C          -7.802698      -18.426262       -2.175235
 H          -4.563066      -19.633823       -1.951138
 H          -5.229891      -18.387869       -0.892594
 H          -8.032986      -20.771685        0.238548
 H          -7.579564      -19.206341        0.582295
 H          -6.557027      -19.806030       -3.350052
 H          -5.909961      -18.138226       -3.231460
 H          -9.524750      -19.059204       -0.883096
 H          -8.847807      -20.253323       -1.973750
 H          -8.403330      -18.045963       -3.013197
 H          -7.642243      -17.532509       -1.545825
