20
 generated by VMD
 C         -78.603096     -209.357574      -77.021622
 N         -77.785416     -209.854385      -77.720856
 H         -79.455978     -211.031494      -73.656502
 H         -79.323235     -208.914810      -76.408150
 C         -79.420326     -212.068008      -73.199432
 C         -78.096321     -212.457657      -72.509247
 C         -80.555969     -213.014771      -72.982361
 C         -78.339012     -212.565262      -70.959038
 C         -80.596977     -213.392639      -71.488007
 C         -79.305542     -213.746307      -70.728905
 H         -77.449112     -211.662796      -72.741463
 H         -77.618759     -213.352325      -72.856224
 H         -81.515800     -212.533966      -73.330376
 H         -80.364502     -213.868637      -73.542496
 H         -78.689201     -211.580322      -70.575813
 H         -77.346581     -212.693588      -70.417068
 H         -81.493599     -214.132141      -71.285164
 H         -81.113785     -212.428406      -70.984024
 H         -79.454468     -214.094360      -69.706062
 H         -78.857635     -214.757568      -71.033051
