20
 generated by VMD
 C         -76.779099     -203.289612      -66.663811
 N         -77.548225     -203.864975      -66.056061
 H         -75.206161     -200.541397      -68.157272
 H         -76.205551     -202.805084      -67.488342
 C         -74.613365     -199.910278      -68.859421
 C         -74.858551     -198.455826      -68.713837
 C         -73.749817     -200.613586      -69.848831
 C         -73.539635     -197.881012      -68.905548
 C         -73.046112     -199.524567      -70.800713
 C         -72.871178     -198.140030      -70.240952
 H         -75.391220     -198.166153      -67.773521
 H         -75.503838     -198.115875      -69.515045
 H         -72.927200     -201.074341      -69.311211
 H         -74.371132     -201.362122      -70.442947
 H         -72.891045     -198.300079      -68.142860
 H         -73.597351     -196.792068      -68.856514
 H         -73.562836     -199.435806      -71.738434
 H         -72.163918     -199.975143      -71.259232
 H         -71.786896     -197.892761      -70.090744
 H         -73.288895     -197.328232      -70.857460
