20
 generated by VMD
 C          -2.541522      -16.677149        2.757858
 N          -1.802900      -17.193214        2.093846
 H          -4.999998      -15.966984        0.433207
 H          -4.381713      -17.244173       -0.646612
 C          -5.268160      -16.895115       -0.103867
 C          -6.331709      -16.308317       -1.039528
 C          -5.894513      -17.934042        0.858245
 C          -7.254672      -17.230003       -1.755185
 C          -6.791375      -18.965082        0.116455
 C          -7.848143      -18.239378       -0.741725
 H          -5.763114      -15.743727       -1.794773
 H          -6.858115      -15.526799       -0.478552
 H          -5.054023      -18.427031        1.345431
 H          -6.445951      -17.432646        1.718273
 H          -6.777351      -17.774117       -2.565081
 H          -8.014174      -16.692394       -2.308425
 H          -7.193821      -19.694345        0.863319
 H          -6.116202      -19.553715       -0.484341
 H          -8.537896      -18.912676       -1.278303
 H          -8.494548      -17.643238       -0.044754
