20
 generated by VMD
 C         -10.900921      -25.813496       -0.848864
 N         -10.988700      -24.716894       -0.596982
 H          -7.119150      -25.707680       -0.860169
 H          -8.682831      -25.350975       -1.610489
 C          -7.594776      -25.350470       -1.754212
 C          -7.305988      -26.213423       -2.983780
 C          -7.227454      -23.819128       -2.009773
 C          -7.812958      -25.608599       -4.290783
 C          -7.713278      -23.228149       -3.268330
 C          -7.388216      -24.089994       -4.512850
 H          -7.480457      -27.285521       -2.812165
 H          -6.132346      -26.206589       -3.109305
 H          -7.385853      -23.110958       -1.162080
 H          -6.167196      -23.835251       -2.081200
 H          -8.914394      -25.703033       -4.330420
 H          -7.521805      -26.202761       -5.154208
 H          -7.246820      -22.248789       -3.419124
 H          -8.802073      -23.128218       -3.227865
 H          -7.854515      -23.545023       -5.352239
 H          -6.328854      -24.091940       -4.614852
