20
 generated by VMD
 C         -40.952023     -101.089081      -32.849628
 N         -42.027843     -101.484589      -32.727623
 H         -38.456409     -103.096169      -32.525246
 H         -39.930763     -100.962509      -32.898609
 C         -37.563011     -102.763603      -32.042694
 C         -36.310802     -102.824409      -32.796467
 C         -37.478401     -102.795746      -30.527124
 C         -35.280922     -101.854546      -32.333885
 C         -36.133579     -102.169266      -30.049976
 C         -34.985661     -102.273834      -30.946459
 H         -36.555241     -102.461594      -33.778046
 H         -35.854755     -103.796791      -32.875366
 H         -38.414841     -102.266594      -30.070200
 H         -37.524868     -103.874641      -30.162991
 H         -35.632732     -100.852058      -32.389004
 H         -34.403511     -101.798599      -32.895569
 H         -35.738522     -102.687180      -29.216003
 H         -36.188766     -101.112656      -29.781874
 H         -34.140804     -101.741867      -30.626179
 H         -34.705383     -103.358337      -30.906504
