20
 generated by VMD
 C         -10.802318      -25.754932       -0.846689
 N         -11.050369      -24.685822       -0.584008
 H          -6.866785      -25.650814       -0.895537
 H          -8.548618      -25.393330       -1.449548
 C          -7.521417      -25.293617       -1.760624
 C          -7.208553      -26.168472       -2.984060
 C          -7.145697      -23.844967       -1.996429
 C          -7.838560      -25.514376       -4.242025
 C          -7.789317      -23.207176       -3.312092
 C          -7.442361      -24.103083       -4.461838
 H          -7.766222      -27.079596       -2.886952
 H          -6.191737      -26.426970       -3.069977
 H          -7.536567      -23.349413       -1.122592
 H          -6.019099      -23.715750       -1.940524
 H          -8.901529      -25.580753       -4.203015
 H          -7.521892      -26.121929       -5.070190
 H          -7.390317      -22.170948       -3.473318
 H          -8.876746      -23.065311       -3.155900
 H          -7.897072      -23.848530       -5.436138
 H          -6.335373      -23.944014       -4.729025
