20
 generated by VMD
 C         -52.664215     -147.166351      -45.359554
 N         -53.713116     -147.363632      -44.984524
 H         -54.582607     -147.335052      -47.850494
 H         -51.691097     -146.866653      -45.685951
 C         -54.536751     -146.382599      -48.472027
 C         -53.312687     -146.296661      -49.436264
 C         -55.347813     -145.218948      -47.951557
 C         -53.329178     -145.071838      -50.394444
 C         -55.191742     -144.009232      -49.041706
 C         -53.786747     -143.806290      -49.688667
 H         -53.188572     -147.107666      -50.124996
 H         -52.345566     -146.212128      -48.828968
 H         -56.301353     -145.644394      -47.929844
 H         -54.958561     -144.780426      -47.012737
 H         -54.085636     -145.194138      -51.111240
 H         -52.433624     -145.003769      -51.002304
 H         -55.456596     -143.084549      -48.559231
 H         -56.045246     -144.137863      -49.889034
 H         -53.844124     -142.853012      -50.321064
 H         -53.170662     -143.693741      -48.751850
