20
 generated by VMD
 C         -29.832376      -79.356926      -26.311804
 N         -30.674807      -78.709236      -25.869043
 H         -28.682627      -82.991371      -25.570736
 H         -29.002083      -79.940559      -26.398430
 C         -29.012573      -83.021393      -24.592304
 C         -28.473875      -82.033501      -23.677122
 C         -29.934072      -84.178757      -24.204712
 C         -29.591732      -81.425026      -22.868282
 C         -31.048662      -83.583641      -23.265676
 C         -30.453058      -82.510712      -22.225298
 H         -27.969534      -81.360832      -24.270645
 H         -27.740503      -82.454285      -22.994692
 H         -30.322893      -84.499184      -25.202457
 H         -29.457449      -85.049500      -23.708401
 H         -30.172543      -80.881645      -23.710037
 H         -29.136921      -80.690140      -22.208736
 H         -31.496706      -84.456978      -22.776737
 H         -31.864052      -83.061539      -23.892281
 H         -31.338957      -82.176361      -21.680090
 H         -29.723896      -83.125053      -21.549286
