20
 generated by VMD
 C         -75.959282     -202.627609      -66.386894
 N         -76.803413     -203.002243      -65.658615
 H         -75.821114     -200.098740      -68.978729
 H         -75.237473     -202.229904      -67.156242
 C         -74.847282     -199.674988      -69.005424
 C         -74.827499     -198.306534      -68.441071
 C         -73.893555     -200.118896      -70.057533
 C         -73.431778     -197.605621      -68.502029
 C         -73.158119     -198.913315      -70.746101
 C         -72.691261     -197.804337      -69.900215
 H         -75.096275     -198.350372      -67.390915
 H         -75.681366     -197.613480      -68.939758
 H         -72.996880     -200.722504      -69.696312
 H         -74.563026     -200.671555      -70.836639
 H         -72.737839     -197.983032      -67.751251
 H         -73.478065     -196.569382      -68.288040
 H         -73.808258     -198.580353      -71.618340
 H         -72.292351     -199.324081      -71.257072
 H         -71.689415     -197.881805      -69.718529
 H         -72.746056     -196.869736      -70.553329
