20
 generated by VMD
 C         -12.386686      -30.861410       -8.464581
 N         -11.972407      -30.551279       -7.453218
 H         -11.682388      -34.599270       -7.760990
 H         -12.838999      -33.831463       -6.629379
 C         -11.963768      -34.431591       -6.689071
 C         -10.713123      -33.791557       -6.069901
 C         -12.095568      -35.814980       -6.084626
 C         -10.932242      -33.543827       -4.563734
 C         -12.331532      -35.714321       -4.616317
 C         -11.207870      -34.903828       -3.903101
 H         -10.574598      -32.778522       -6.580020
 H          -9.829638      -34.404488       -6.177819
 H         -12.979280      -36.165760       -6.599783
 H         -11.239749      -36.430462       -6.370101
 H         -11.820685      -32.885178       -4.350576
 H          -9.942724      -33.174675       -4.139378
 H         -12.341309      -36.761536       -4.150105
 H         -13.256253      -35.183159       -4.330302
 H         -11.637496      -34.735229       -2.926644
 H         -10.273552      -35.485882       -3.719198
