20
 generated by VMD
 C         -49.372349     -127.463791      -39.431671
 N         -50.441814     -127.371292      -39.906460
 H         -47.025349     -127.149353      -42.387562
 H         -48.302189     -127.484367      -39.224285
 C         -46.312973     -126.486694      -41.990253
 C         -45.526306     -127.159470      -40.822662
 C         -46.567802     -124.988174      -42.094921
 C         -44.421844     -126.163383      -40.420906
 C         -45.357258     -124.254433      -41.533363
 C         -44.922184     -124.727051      -40.184875
 H         -45.036350     -128.166885      -41.073952
 H         -46.152782     -127.284042      -39.966640
 H         -46.621078     -124.767921      -43.142296
 H         -47.416500     -124.732018      -41.336227
 H         -43.752224     -126.048790      -41.265854
 H         -43.921749     -126.541214      -39.527504
 H         -45.569111     -123.184250      -41.656635
 H         -44.500366     -124.398148      -42.210251
 H         -44.071430     -124.061203      -39.994427
 H         -45.680534     -124.627800      -39.341896
