20
 generated by VMD
 C         -29.086052      -73.729271      -19.412926
 N         -29.958460      -74.530754      -19.416864
 H         -25.223713      -73.220009      -18.818495
 H         -28.434792      -72.877029      -19.694714
 C         -25.502998      -73.108101      -19.815825
 C         -25.248295      -74.280006      -20.722557
 C         -25.758785      -71.783836      -20.423510
 C         -25.796213      -74.169983      -22.191507
 C         -26.206427      -71.804504      -21.845797
 C         -25.525824      -72.764992      -22.759323
 H         -25.834711      -75.187012      -20.304684
 H         -24.206158      -74.441254      -20.776041
 H         -26.614195      -71.191231      -20.001474
 H         -24.870218      -71.137321      -20.362190
 H         -26.877388      -74.436592      -22.180483
 H         -25.275297      -74.783699      -22.943794
 H         -26.060907      -70.748894      -22.262136
 H         -27.315365      -71.933464      -21.909115
 H         -26.185013      -72.789589      -23.682997
 H         -24.514198      -72.510536      -23.020771
