20
 generated by VMD
 C         -40.017033     -101.037216      -31.835226
 N         -40.975540     -100.598244      -31.329468
 H         -37.940117     -103.421890      -32.460426
 H         -39.312065     -101.376389      -32.536842
 C         -37.294731     -102.623466      -32.025009
 C         -35.875656     -102.532799      -32.766647
 C         -37.195953     -102.321388      -30.509951
 C         -35.402313     -101.001060      -32.532566
 C         -36.620964     -100.971382      -30.129206
 C         -35.223434     -100.823059      -31.039892
 H         -35.979515     -102.825333      -33.794357
 H         -35.223701     -103.298820      -32.291832
 H         -38.156788     -102.475517      -29.960938
 H         -36.572647     -103.026314      -30.071577
 H         -36.300060     -100.354477      -32.890671
 H         -34.583683     -100.802094      -33.239811
 H         -36.458073     -100.907761      -29.084198
 H         -37.398502     -100.140259      -30.411745
 H         -34.820557      -99.793587      -30.866734
 H         -34.401550     -101.447372      -30.579884
