20
 generated by VMD
 C         -40.659866     -100.020233      -29.602001
 N         -40.174088     -100.193123      -28.547844
 H         -37.383453      -99.762833      -30.448746
 H         -40.926502      -99.760574      -30.563086
 C         -36.381985      -99.415848      -30.768324
 C         -35.888832      -99.267639      -32.236397
 C         -35.380085      -99.146980      -29.624556
 C         -34.793705      -98.179291      -32.511959
 C         -34.341171      -98.060432      -30.047031
 C         -33.756355      -98.444695      -31.377792
 H         -36.756931      -99.115532      -32.898994
 H         -35.352901     -100.209679      -32.532921
 H         -35.777500      -98.986343      -28.602993
 H         -34.844749     -100.126236      -29.664629
 H         -35.320545      -97.227943      -32.367325
 H         -34.224998      -98.200134      -33.434357
 H         -33.485588      -97.946274      -29.330210
 H         -34.900417      -97.120171      -30.211319
 H         -32.910412      -97.830421      -31.533459
 H         -33.427513      -99.546638      -31.427347
