20
 generated by VMD
 C         -67.541611     -179.980011      -58.346863
 N         -68.350258     -179.976715      -59.210167
 H         -67.285240     -176.579346      -59.972839
 H         -66.803749     -180.073608      -57.587944
 C         -66.366104     -176.203964      -60.148346
 C         -66.069031     -175.445435      -61.392086
 C         -65.229004     -176.780792      -59.376881
 C         -64.855568     -174.493179      -61.153332
 C         -64.075447     -175.818024      -59.177509
 C         -63.620083     -175.280426      -60.572544
 H         -66.984825     -174.917480      -61.769913
 H         -65.765839     -176.172821      -62.136169
 H         -65.492577     -177.097870      -58.309093
 H         -64.828743     -177.637695      -59.906174
 H         -65.217751     -173.617874      -60.624065
 H         -64.464211     -174.117813      -62.149910
 H         -63.295219     -176.231094      -58.592316
 H         -64.467789     -174.914902      -58.606728
 H         -62.825703     -174.497574      -60.559654
 H         -63.315990     -176.069473      -61.251629
