20
 generated by VMD
 C         -50.678589     -130.886093      -46.345459
 N         -50.276516     -130.951538      -47.489979
 H         -48.228867     -132.083130      -44.266216
 H         -51.429695     -130.720016      -45.601055
 C         -48.533554     -132.363068      -43.273472
 C         -49.130878     -133.677887      -43.160469
 C         -48.429920     -131.408051      -42.141243
 C         -48.465614     -134.401260      -41.884132
 C         -47.837467     -132.074509      -40.901291
 C         -48.510811     -133.426407      -40.677425
 H         -49.065384     -134.240173      -44.041306
 H         -50.255428     -133.473434      -43.046032
 H         -47.830776     -130.616501      -42.267349
 H         -49.344849     -130.934235      -41.896797
 H         -47.392696     -134.730316      -42.118298
 H         -49.100185     -135.295685      -41.737465
 H         -48.167896     -131.421783      -40.055946
 H         -46.765198     -132.172089      -40.956577
 H         -48.063271     -134.004578      -39.831291
 H         -49.525043     -133.388123      -40.325092
