20
 generated by VMD
 C         -70.174294     -181.189728      -63.482971
 N         -71.142502     -181.836136      -63.291588
 H         -67.787262     -181.480652      -61.070557
 H         -69.303078     -180.639709      -63.715191
 C         -66.990211     -180.832993      -60.833958
 C         -65.725708     -181.492828      -60.439819
 C         -67.411850     -179.385590      -60.580982
 C         -64.570442     -180.502640      -60.707161
 C         -66.160202     -178.492142      -60.870216
 C         -64.919510     -179.146149      -60.306561
 H         -65.627747     -182.381104      -61.123440
 H         -65.884392     -181.729858      -59.409313
 H         -68.225342     -179.000931      -61.252506
 H         -67.620003     -179.099411      -59.605186
 H         -64.246361     -180.669205      -61.736526
 H         -63.643551     -180.677933      -60.111973
 H         -66.305496     -177.609406      -60.210564
 H         -66.015137     -178.202606      -61.932869
 H         -64.069099     -178.398834      -60.452324
 H         -64.905006     -179.043472      -59.281353
