20
 generated by VMD
 C         -30.298624      -92.695419      -25.794518
 N         -29.588167      -92.404198      -24.896936
 H         -32.595490      -89.658264      -26.571207
 H         -30.846615      -92.882538      -26.755301
 C         -33.251743      -90.076187      -27.324978
 C         -34.023094      -91.286766      -27.064175
 C         -33.470299      -89.287842      -28.529119
 C         -35.368645      -91.297173      -27.833466
 C         -34.815647      -89.422226      -29.223244
 C         -35.261761      -90.863342      -29.298265
 H         -34.364651      -91.320412      -26.025438
 H         -33.680462      -92.221230      -27.488104
 H         -33.165794      -88.273415      -28.296095
 H         -32.704597      -89.757103      -29.160284
 H         -35.999016      -90.546310      -27.212109
 H         -35.851387      -92.272919      -27.747587
 H         -34.750988      -88.844955      -30.151760
 H         -35.459492      -88.883110      -28.522751
 H         -36.135540      -90.920364      -29.994556
 H         -34.405704      -91.431320      -29.793760
