20
 generated by VMD
 C         -15.108875      -46.296177       -5.857087
 N         -14.802855      -47.344990       -5.699216
 H         -15.729121      -45.083328       -9.531058
 H         -14.737394      -45.144997      -11.048464
 C         -15.746645      -45.085663      -10.602243
 C         -16.429268      -43.844151      -11.085746
 C         -16.474958      -46.384556      -11.023687
 C         -16.621799      -43.994579      -12.593992
 C         -16.615911      -46.500389      -12.558154
 C         -17.282898      -45.242107      -13.086850
 H         -15.723719      -43.026974      -11.015842
 H         -17.406679      -43.551250      -10.643124
 H         -15.894649      -47.248344      -10.587856
 H         -17.491396      -46.286503      -10.530615
 H         -15.627135      -43.955719      -13.045471
 H         -17.183466      -43.081161      -12.867087
 H         -17.162624      -47.379547      -12.832258
 H         -15.603449      -46.576000      -13.024118
 H         -17.421398      -45.234596      -14.142728
 H         -18.329878      -45.290195      -12.740516
