20
 generated by VMD
 C         -11.055009      -38.735352       -6.933574
 N         -11.973810      -38.153511       -7.233109
 H         -12.655969      -41.614704       -9.025745
 H         -13.633424      -40.263893       -8.140841
 C         -13.678317      -41.226017       -8.844168
 C         -14.457212      -42.236649       -8.009457
 C         -14.392579      -40.926418      -10.145483
 C         -15.918687      -41.874748       -7.905489
 C         -15.741055      -40.297382       -9.830449
 C         -16.605438      -41.332317       -9.147447
 H         -13.990974      -42.348354       -6.994712
 H         -14.288485      -43.237022       -8.450840
 H         -13.784769      -40.188774      -10.712988
 H         -14.442935      -41.799435      -10.782098
 H         -16.030476      -41.185600       -7.028630
 H         -16.510464      -42.714016       -7.544661
 H         -16.263128      -39.959656      -10.765491
 H         -15.660286      -39.464199       -9.151777
 H         -17.484711      -40.718208       -8.877619
 H         -16.886515      -42.143158       -9.827488
