20
 generated by VMD
 C         -74.505707     -200.902756      -66.160995
 N         -73.370369     -200.910812      -66.226616
 H         -76.489891     -198.563278      -68.662766
 H         -75.580566     -200.705292      -65.914963
 C         -75.429718     -198.357880      -68.743088
 C         -74.982964     -197.135834      -67.923141
 C         -74.510155     -198.999542      -69.646294
 C         -73.518723     -196.740234      -68.130997
 C         -73.219131     -198.207306      -69.955231
 C         -72.586540     -197.766586      -68.646599
 H         -75.074509     -197.383957      -66.860558
 H         -75.574997     -196.186462      -68.171516
 H         -74.131271     -199.951187      -69.202797
 H         -75.121124     -199.193054      -70.588646
 H         -73.065475     -196.297501      -67.266396
 H         -73.368538     -196.068344      -68.985222
 H         -73.447029     -197.342056      -70.636086
 H         -72.529099     -198.848206      -70.638809
 H         -72.418846     -198.524109      -67.912773
 H         -71.502693     -197.351257      -68.951065
