20
 generated by VMD
 C          -9.277890      -24.311106        1.507841
 N          -9.488585      -25.272810        2.011537
 H          -7.271472      -23.133060       -0.709857
 H          -8.654643      -22.628098       -1.879594
 C          -7.640992      -23.002537       -1.716494
 C          -7.537556      -24.313622       -2.566926
 C          -6.706163      -21.897474       -2.349944
 C          -7.756592      -24.026943       -4.076338
 C          -6.971925      -21.577572       -3.773315
 C          -6.994884      -22.808985       -4.640178
 H          -8.186467      -25.098598       -2.301172
 H          -6.503285      -24.742342       -2.361725
 H          -6.738024      -21.041998       -1.691645
 H          -5.660940      -22.253998       -2.229403
 H          -8.829836      -23.800550       -4.133353
 H          -7.703411      -24.856596       -4.787776
 H          -6.238804      -20.840916       -4.109880
 H          -7.921032      -21.087624       -3.942711
 H          -7.261430      -22.499823       -5.678233
 H          -5.959812      -23.220650       -4.690208
