20
 generated by VMD
 C         -55.603374     -148.914398      -45.443241
 N         -54.969654     -149.412766      -44.588886
 H         -54.192711     -148.051941      -48.220535
 H         -56.293732     -148.562973      -46.241489
 C         -54.244865     -147.300949      -48.949738
 C         -53.208191     -147.201569      -49.981750
 C         -54.974705     -145.994766      -48.529648
 C         -53.437874     -146.151794      -51.086391
 C         -55.181320     -145.021530      -49.719814
 C         -53.883041     -144.793976      -50.544014
 H         -53.178326     -148.242752      -50.389103
 H         -52.330250     -146.963394      -49.515095
 H         -55.972866     -146.186432      -48.045525
 H         -54.388184     -145.466537      -47.803993
 H         -54.051754     -146.490494      -51.879505
 H         -52.440708     -145.937347      -51.504646
 H         -55.678772     -144.164383      -49.472424
 H         -55.816929     -145.655426      -50.418365
 H         -54.013149     -144.224457      -51.453442
 H         -53.052681     -144.451691      -49.920883
