20
 generated by VMD
 C         -31.025972      -78.453178      -25.968935
 N         -31.386404      -77.517784      -25.297098
 H         -29.421345      -77.426605      -23.093973
 H         -30.797743      -79.066574      -26.834900
 C         -28.821459      -78.209244      -22.658022
 C         -27.363300      -78.361000      -22.937981
 C         -29.572807      -79.366455      -22.029263
 C         -26.531223      -79.525871      -22.361486
 C         -28.708376      -80.426277      -21.295469
 C         -27.386391      -80.729622      -22.025928
 H         -26.841709      -77.382019      -22.803328
 H         -27.179020      -78.288216      -24.020695
 H         -30.339420      -78.962135      -21.278505
 H         -30.215359      -79.878944      -22.786049
 H         -26.245180      -79.338692      -21.330956
 H         -25.646032      -79.651443      -23.049061
 H         -29.247038      -81.373543      -21.126898
 H         -28.224716      -80.065025      -20.299530
 H         -26.780573      -81.388535      -21.370979
 H         -27.741550      -81.350914      -22.944017
