20
 generated by VMD
 C          -9.526699      -25.016365        0.657375
 N         -10.454792      -25.472454        1.076552
 H          -6.228976      -23.413515       -0.870484
 H          -7.710132      -22.581657       -1.015332
 C          -6.951883      -23.143835       -1.625396
 C          -7.244719      -24.476318       -2.298966
 C          -6.352763      -22.132355       -2.624531
 C          -8.163379      -24.368120       -3.563957
 C          -7.239373      -22.032427       -3.868022
 C          -7.499153      -23.418468       -4.561250
 H          -7.698384      -25.072039       -1.563563
 H          -6.351292      -25.052191       -2.534239
 H          -6.387061      -21.155590       -2.105197
 H          -5.325511      -22.419800       -2.799106
 H          -9.206921      -24.031559       -3.294391
 H          -8.268462      -25.343895       -4.031597
 H          -6.723768      -21.403555       -4.626352
 H          -8.179814      -21.549566       -3.595542
 H          -8.234455      -23.248543       -5.398517
 H          -6.524940      -23.764177       -4.898406
