20
 generated by VMD
 C         -57.642460     -165.600082      -56.547340
 N         -57.827797     -166.718262      -56.202164
 H         -60.495167     -165.075974      -54.350769
 H         -57.359756     -164.654633      -56.959068
 C         -61.502102     -165.201004      -54.790840
 C         -61.835625     -166.576492      -55.279942
 C         -62.292511     -164.123138      -55.398479
 C         -63.380920     -166.919815      -55.559120
 C         -63.808090     -164.454285      -55.793236
 C         -63.913578     -165.828659      -56.400055
 H         -61.415710     -167.453354      -54.581554
 H         -61.259800     -166.891876      -56.184315
 H         -62.265785     -163.294479      -54.758801
 H         -61.887108     -163.816971      -56.389938
 H         -63.886074     -166.994141      -54.562397
 H         -63.456009     -167.873993      -56.132172
 H         -64.240700     -163.530792      -56.493038
 H         -64.433113     -164.417480      -54.853886
 H         -64.990334     -165.927155      -56.722328
 H         -63.338711     -165.765091      -57.363041
