20
 generated by VMD
 C         -30.106916      -89.581558      -25.776915
 N         -29.229340      -90.312569      -25.941645
 H         -32.233414      -90.991913      -26.445900
 H         -31.010489      -88.876427      -25.822367
 C         -32.956818      -90.724297      -27.211023
 C         -34.296173      -91.323944      -27.293201
 C         -32.590382      -89.582672      -28.071239
 C         -35.254360      -90.150932      -26.962864
 C         -33.516899      -88.417809      -27.769302
 C         -34.976250      -88.864418      -27.865898
 H         -34.361641      -92.142159      -26.578329
 H         -34.357410      -91.889091      -28.222311
 H         -31.547388      -89.278992      -27.878300
 H         -32.619267      -89.666267      -29.170391
 H         -34.943584      -89.861198      -25.960350
 H         -36.271507      -90.522919      -27.073221
 H         -33.329533      -87.567986      -28.419960
 H         -33.267181      -88.085060      -26.793596
 H         -35.809189      -88.233894      -27.782501
 H         -35.174839      -89.317169      -28.865057
