20
 generated by VMD
 C         -68.189941     -195.414993      -64.763474
 N         -68.741203     -196.426300      -64.695847
 H         -71.292702     -194.426559      -66.934692
 H         -67.872078     -194.436630      -64.634186
 C         -72.102219     -193.810623      -67.237091
 C         -72.166794     -192.360596      -66.860306
 C         -73.389664     -194.504364      -67.679222
 C         -73.418236     -192.052307      -66.036972
 C         -74.714073     -193.903915      -67.003609
 C         -74.602219     -192.396042      -66.866577
 H         -72.123192     -191.824036      -67.733192
 H         -71.289406     -192.168991      -66.160706
 H         -73.534370     -194.462067      -68.732292
 H         -73.291595     -195.525681      -67.316139
 H         -73.431015     -190.947952      -65.903946
 H         -73.362923     -192.553696      -65.053040
 H         -74.874939     -194.311829      -66.006630
 H         -75.644310     -194.211426      -67.595726
 H         -74.601723     -192.068680      -67.903534
 H         -75.591316     -192.099808      -66.398544
