20
 generated by VMD
 C         -79.077904     -208.208282      -75.585327
 N         -78.348824     -207.342178      -75.477333
 H         -78.980347     -210.305634      -73.425407
 H         -79.755493     -208.958527      -75.443291
 C         -78.535919     -210.053009      -72.499893
 C         -77.312935     -209.211121      -72.392532
 C         -78.883972     -211.063583      -71.516975
 C         -77.123108     -208.756851      -71.013748
 C         -78.479439     -210.684464      -70.075066
 C         -77.130684     -210.014618      -70.011543
 H         -77.560982     -208.303360      -72.981895
 H         -76.374664     -209.773376      -72.685432
 H         -79.961586     -211.221695      -71.607117
 H         -78.445259     -212.092743      -71.656563
 H         -77.942787     -208.038818      -70.658897
 H         -76.113419     -208.327408      -70.875687
 H         -78.069771     -211.681213      -69.619308
 H         -79.271400     -210.312088      -69.500793
 H         -76.703308     -209.716751      -69.053940
 H         -76.532303     -210.866150      -70.419220
