20
 generated by VMD
 C         -69.079666     -180.062775      -62.177284
 N         -69.666260     -181.034195      -62.295544
 H         -66.866272     -180.435059      -59.053062
 H         -68.537903     -179.101700      -62.119610
 C         -66.291420     -179.652344      -59.650051
 C         -65.462029     -179.938187      -60.817745
 C         -66.046974     -178.384430      -58.939472
 C         -65.335594     -178.690186      -61.772697
 C         -66.094742     -177.213730      -59.844666
 C         -65.073753     -177.329559      -60.914780
 H         -65.929565     -180.801910      -61.385395
 H         -64.400299     -180.337219      -60.623634
 H         -66.837181     -178.427444      -58.247372
 H         -65.080811     -178.389160      -58.394764
 H         -66.267059     -178.477829      -62.329933
 H         -64.377144     -178.770584      -62.353977
 H         -65.994934     -176.347412      -59.202084
 H         -67.009911     -177.166214      -60.389874
 H         -64.929977     -176.456482      -61.585068
 H         -63.935654     -177.413757      -60.525604
