20
 generated by VMD
 C         -14.902490      -45.537514       -6.786351
 N         -14.545937      -46.563938       -7.014203
 H         -15.478039      -44.066360       -8.995673
 H         -14.516438      -44.208359      -10.469743
 C         -15.490008      -44.337914      -10.049951
 C         -16.473148      -43.435162      -10.780231
 C         -15.951777      -45.816696      -10.198679
 C         -16.710766      -43.700764      -12.322728
 C         -16.279730      -46.143448      -11.687397
 C         -17.215435      -45.132221      -12.341513
 H         -15.999764      -42.434788      -10.839237
 H         -17.440493      -43.414059      -10.268746
 H         -15.271181      -46.580822       -9.829960
 H         -16.852278      -45.839073       -9.573507
 H         -15.735147      -43.632919      -12.851429
 H         -17.453260      -42.998280      -12.724692
 H         -16.661098      -47.178623      -11.772378
 H         -15.328229      -46.134956      -12.176261
 H         -17.453218      -45.389462      -13.355802
 H         -18.165527      -45.247200      -11.861262
