20
 generated by VMD
 C         -22.761019      -52.350616      -11.830690
 N         -22.662453      -52.596115      -10.759730
 H         -19.958321      -52.647621      -14.102480
 H         -22.671616      -51.980553      -13.058602
 C         -18.844603      -52.498165      -13.842246
 C         -17.969776      -51.832287      -14.877520
 C         -18.349361      -53.353245      -12.720132
 C         -16.536959      -52.176208      -14.610673
 C         -17.152477      -52.743000      -12.117265
 C         -16.133181      -52.191422      -13.150076
 H         -18.091045      -50.749985      -14.884242
 H         -18.345415      -52.234943      -15.840580
 H         -19.180990      -53.410194      -11.949677
 H         -18.145132      -54.400173      -13.042849
 H         -15.787472      -51.601715      -15.184506
 H         -16.369734      -53.211594      -14.908333
 H         -16.587934      -53.529526      -11.565907
 H         -17.431608      -52.033867      -11.360085
 H         -15.960354      -51.160439      -12.876979
 H         -15.162364      -52.644714      -13.011091
