20
 generated by VMD
 C         -53.006351     -147.358124      -45.491096
 N         -54.135593     -147.405334      -45.263847
 H         -54.906357     -147.566895      -48.114155
 H         -51.992264     -147.220062      -45.726147
 C         -54.542271     -146.646561      -48.610680
 C         -53.222755     -146.443298      -49.439121
 C         -55.108459     -145.411606      -48.000721
 C         -53.329319     -145.249390      -50.435928
 C         -55.203545     -144.206497      -48.934299
 C         -53.908752     -143.950180      -49.744064
 H         -53.073563     -147.416702      -50.002831
 H         -52.436512     -146.345062      -48.727722
 H         -55.951885     -145.679901      -47.294300
 H         -54.348782     -145.098190      -47.268936
 H         -54.097164     -145.560211      -51.271214
 H         -52.261890     -145.142975      -50.773685
 H         -55.430481     -143.240631      -48.258881
 H         -55.969154     -144.315231      -49.666721
 H         -53.978672     -143.089569      -50.417618
 H         -53.080738     -143.811172      -49.053127
