20
 generated by VMD
 C         -12.289435      -30.758640       -8.470531
 N         -11.951075      -30.612188       -7.400938
 H         -11.734666      -34.645176       -7.883177
 H         -12.848651      -34.045120       -6.815151
 C         -11.865580      -34.626484       -6.821815
 C         -10.709475      -33.817276       -6.142284
 C         -12.098664      -35.965691       -6.035945
 C         -11.141291      -33.596737       -4.658401
 C         -12.400340      -35.751095       -4.549724
 C         -11.283131      -34.957600       -3.954286
 H         -10.626871      -32.874107       -6.643695
 H          -9.696579      -34.267101       -6.324085
 H         -13.008533      -36.435551       -6.477506
 H         -11.288577      -36.699448       -6.171035
 H         -12.055815      -33.057503       -4.465587
 H         -10.387315      -33.024128       -4.138706
 H         -12.437097      -36.738647       -4.048653
 H         -13.306561      -35.250919       -4.324815
 H         -11.612276      -34.791683       -2.868556
 H         -10.340307      -35.470085       -3.920413
