20
 generated by VMD
 C         -78.795441     -204.189636      -70.370926
 N         -79.856201     -204.612534      -70.511650
 H         -76.546547     -203.536743      -68.481133
 H         -77.802803     -203.731201      -70.454628
 C         -75.746819     -203.207123      -69.229050
 C         -75.767899     -201.871750      -69.840263
 C         -74.471901     -203.902939      -68.965294
 C         -74.584839     -201.599350      -70.825775
 C         -73.264221     -202.974091      -68.940514
 C         -73.304092     -202.205002      -70.312805
 H         -75.716644     -201.130707      -69.012520
 H         -76.643951     -201.516220      -70.375954
 H         -74.541855     -204.333130      -67.955727
 H         -74.241470     -204.630783      -69.809174
 H         -74.368576     -200.476685      -70.801064
 H         -74.779709     -201.862671      -71.901489
 H         -72.379227     -203.545990      -68.778976
 H         -73.422295     -202.187286      -68.149406
 H         -72.625168     -201.415924      -70.352020
 H         -73.142799     -202.932953      -71.067589
