20
 generated by VMD
 C         -67.251915     -189.674454      -66.753494
 N         -66.664696     -189.085159      -67.569412
 H         -69.148773     -189.385971      -64.279396
 H         -67.710754     -190.314774      -65.967415
 C         -70.228676     -189.268173      -64.109253
 C         -71.087852     -190.395538      -63.831715
 C         -70.382309     -187.933609      -63.527634
 C         -72.517853     -189.905441      -64.210709
 C         -71.841400     -187.428741      -63.536652
 C         -72.871132     -188.571320      -63.310131
 H         -70.968613     -190.745682      -62.783070
 H         -70.850922     -191.185394      -64.604752
 H         -69.911087     -187.797729      -62.490879
 H         -69.751137     -187.124588      -64.053886
 H         -73.183311     -190.754517      -63.879120
 H         -72.564362     -189.722458      -65.264511
 H         -72.116745     -186.921631      -64.457886
 H         -71.785339     -186.590866      -62.833775
 H         -72.684944     -188.745605      -62.243355
 H         -74.011971     -188.277832      -63.473289
