20
 generated by VMD
 C         -67.477257     -179.834045      -58.366516
 N         -68.541588     -180.182236      -58.615173
 H         -67.172249     -176.653687      -60.081253
 H         -66.536728     -179.418655      -58.144104
 C         -66.135788     -176.013535      -60.061771
 C         -65.980812     -175.175522      -61.276089
 C         -65.007607     -176.602432      -59.375462
 C         -64.907387     -174.117325      -61.074665
 C         -63.789337     -175.571671      -59.319466
 C         -63.598293     -174.717316      -60.617432
 H         -66.964050     -174.670471      -61.280766
 H         -65.864471     -175.935074      -62.142693
 H         -65.119530     -177.080139      -58.422359
 H         -64.607513     -177.372437      -60.100407
 H         -65.309502     -173.422394      -60.271313
 H         -64.678368     -173.683365      -62.020531
 H         -62.876831     -176.103027      -58.899185
 H         -64.010551     -174.877792      -58.500309
 H         -62.806248     -173.945145      -60.488926
 H         -63.410568     -175.617264      -61.313812
