20
 generated by VMD
 C         -13.380231      -44.430832       -6.601739
 N         -13.971273      -44.041191       -5.723198
 H         -15.073792      -44.812984       -8.914212
 H         -14.319180      -43.861927      -10.171926
 C         -15.273094      -44.434845       -9.903332
 C         -16.435205      -43.456264       -9.909606
 C         -15.529468      -45.586815      -10.926645
 C         -16.880434      -42.932762      -11.309728
 C         -16.152222      -45.091293      -12.246554
 C         -17.329226      -44.117962      -12.110416
 H         -16.230814      -42.585567       -9.300311
 H         -17.251713      -43.989548       -9.402127
 H         -14.579567      -46.159336      -11.073793
 H         -16.162611      -46.350536      -10.417229
 H         -15.990652      -42.488811      -11.771867
 H         -17.655613      -42.170845      -11.265823
 H         -16.443253      -45.954140      -12.773895
 H         -15.434664      -44.549877      -12.940475
 H         -17.655277      -43.814083      -13.133953
 H         -18.223387      -44.671513      -11.662071
