20
 generated by VMD
 C          -1.806765      -16.753206        2.864208
 N          -2.195261      -15.896330        2.267621
 H          -4.296108      -15.894304       -0.092119
 H          -4.566113      -17.184353       -1.352392
 C          -5.038131      -16.628857       -0.510009
 C          -6.360368      -15.889067       -0.888603
 C          -5.352501      -17.560728        0.701391
 C          -7.509587      -16.895658       -1.237023
 C          -6.431013      -18.563654        0.393649
 C          -7.678014      -17.905931       -0.141922
 H          -6.252597      -15.128379       -1.688572
 H          -6.634614      -15.283134       -0.002200
 H          -4.400767      -18.074821        0.924713
 H          -5.415309      -16.937782        1.590531
 H          -7.321571      -17.362959       -2.176301
 H          -8.408444      -16.331093       -1.445552
 H          -6.652159      -19.196527        1.225258
 H          -6.107971      -19.218838       -0.427594
 H          -8.465353      -18.637314       -0.413528
 H          -7.993720      -17.364677        0.772018
