20
 generated by VMD
 C         -72.451149     -198.860367      -65.528114
 N         -73.332741     -199.609085      -65.471344
 H         -70.921425     -195.967728      -67.510941
 H         -71.631340     -198.207870      -65.790733
 C         -71.947182     -195.839706      -67.840271
 C         -72.886711     -194.931305      -67.146873
 C         -72.552765     -196.548523      -68.998123
 C         -74.253502     -194.870560      -67.811218
 C         -73.958405     -197.056580      -68.968903
 C         -74.887741     -196.238266      -67.966026
 H         -72.334511     -193.911774      -67.275833
 H         -72.998924     -194.927536      -66.081688
 H         -72.481361     -195.827545      -69.816399
 H         -71.873878     -197.244431      -69.474731
 H         -74.130241     -194.279449      -68.709923
 H         -74.826080     -194.315491      -67.037811
 H         -73.871811     -198.056061      -68.447166
 H         -74.416420     -197.138000      -69.959900
 H         -75.973442     -196.204041      -68.362457
 H         -74.884552     -196.692902      -67.055168
