20
 generated by VMD
 C         -30.773315      -78.081512      -25.248184
 N         -31.561571      -77.223274      -25.127819
 H         -29.377785      -77.088684      -22.645369
 H         -30.056135      -78.923744      -25.036942
 C         -28.799137      -77.958969      -22.585947
 C         -27.406088      -78.022957      -23.190693
 C         -29.297461      -79.101357      -21.725304
 C         -26.480494      -78.984016      -22.525873
 C         -28.200407      -79.845886      -21.037851
 C         -27.138584      -80.214340      -22.014431
 H         -26.905807      -76.974838      -23.044806
 H         -27.537189      -78.350586      -24.301197
 H         -29.972387      -78.729988      -20.961809
 H         -29.842093      -79.823502      -22.447239
 H         -25.875031      -78.451797      -21.758545
 H         -25.626740      -79.284943      -23.212170
 H         -28.645466      -80.684723      -20.456713
 H         -27.826027      -79.172646      -20.176004
 H         -26.492098      -80.790421      -21.460466
 H         -27.426773      -80.928429      -22.790352
