20
 generated by VMD
 C         -79.482269     -206.547745      -73.456413
 N         -80.463089     -206.160248      -73.052490
 H         -77.998329     -204.990341      -70.605042
 H         -78.427872     -206.662689      -73.821671
 C         -76.949295     -205.312851      -70.595726
 C         -75.954262     -204.320206      -71.027634
 C         -76.677826     -206.636612      -70.055809
 C         -74.636139     -204.465729      -70.168343
 C         -75.509178     -206.481049      -69.066490
 C         -74.249153     -205.948746      -69.831291
 H         -76.293770     -203.326111      -71.009743
 H         -75.636536     -204.585358      -72.065826
 H         -77.605064     -206.940659      -69.597580
 H         -76.399910     -207.307587      -70.878754
 H         -74.642632     -204.036209      -69.128716
 H         -73.712837     -203.906830      -70.610741
 H         -75.389557     -207.486984      -68.646797
 H         -75.605278     -205.808975      -68.286469
 H         -73.416817     -205.913361      -69.111847
 H         -73.853531     -206.557419      -70.691986
