20
 generated by VMD
 C         -59.912094     -156.841248      -56.333485
 N         -60.976856     -156.395447      -56.414803
 H         -59.827744     -157.356827      -53.254642
 H         -58.974056     -157.336548      -56.394970
 C         -58.907269     -157.876450      -52.811520
 C         -57.744064     -157.076355      -52.303444
 C         -58.844757     -159.388718      -52.508545
 C         -57.299450     -157.296753      -50.924023
 C         -58.402683     -159.663605      -50.991379
 C         -57.149387     -158.827698      -50.664307
 H         -57.763916     -156.000183      -52.546246
 H         -56.928642     -157.560226      -53.054806
 H         -59.787361     -160.012161      -52.542347
 H         -58.149063     -159.827713      -53.240284
 H         -58.175632     -156.907944      -50.229359
 H         -56.355030     -156.816040      -50.796406
 H         -58.147030     -160.740387      -50.899860
 H         -59.360565     -159.414474      -50.342541
 H         -57.086903     -158.938477      -49.499260
 H         -56.311264     -159.250946      -51.124523
