20
 generated by VMD
 C         -35.322998      -97.247223      -26.142954
 N         -34.362045      -97.821365      -25.761095
 H         -35.835724      -93.967583      -27.756840
 H         -36.138397      -96.852310      -26.638054
 C         -35.276463      -94.172714      -28.688314
 C         -36.001778      -95.064682      -29.635202
 C         -33.945087      -93.645798      -28.972097
 C         -35.861561      -94.597786      -31.084747
 C         -33.626171      -93.292740      -30.491852
 C         -34.314041      -94.213463      -31.458876
 H         -36.966995      -95.080353      -29.244877
 H         -35.651161      -96.100433      -29.501225
 H         -33.492550      -92.895302      -28.343348
 H         -33.369301      -94.581749      -28.751034
 H         -36.505451      -93.821915      -31.306309
 H         -36.225258      -95.484085      -31.659393
 H         -32.625679      -93.254425      -30.753124
 H         -33.966667      -92.219376      -30.579672
 H         -34.430939      -93.848801      -32.639599
 H         -33.721489      -95.173790      -31.415043
