20
 generated by VMD
 C         -41.042137     -104.340836      -35.808712
 N         -41.991959     -104.887360      -36.227646
 H         -38.089207     -104.031113      -33.379524
 H         -40.340115     -103.656639      -35.410492
 C         -38.118954     -105.024574      -33.011410
 C         -36.839451     -105.372993      -32.199791
 C         -39.324657     -105.942810      -33.186131
 C         -37.114960     -106.380447      -31.139954
 C         -39.271938     -107.022606      -32.126080
 C         -37.880665     -107.456772      -31.717497
 H         -36.494526     -104.452911      -31.683916
 H         -36.089310     -105.729736      -32.896400
 H         -40.280876     -105.468872      -33.155418
 H         -39.275654     -106.461571      -34.198006
 H         -37.617599     -106.047714      -30.228636
 H         -36.083717     -106.592728      -30.837435
 H         -39.854103     -107.855164      -32.472610
 H         -39.894951     -106.685532      -31.343813
 H         -37.969643     -108.401878      -31.113808
 H         -37.334225     -107.763924      -32.579388
