20
 generated by VMD
 C         -38.670994      -98.925858      -27.404036
 N         -37.887920      -99.371658      -26.669432
 H         -37.303520      -97.258362      -30.572800
 H         -39.619556      -98.602005      -27.942503
 C         -36.209129      -97.112808      -30.557983
 C         -35.614338      -97.631310      -31.832243
 C         -35.355640      -96.613228      -29.387186
 C         -34.285671      -96.978981      -32.232948
 C         -34.362679      -95.580414      -30.108797
 C         -33.524345      -96.343491      -31.091465
 H         -36.307854      -97.439766      -32.698635
 H         -35.485298      -98.672493      -31.738182
 H         -35.841465      -96.146378      -28.477591
 H         -34.808903      -97.454094      -28.943775
 H         -34.384274      -96.151649      -33.069927
 H         -33.602997      -97.625580      -32.763016
 H         -33.664135      -95.257294      -29.357752
 H         -34.789406      -94.608284      -30.412586
 H         -32.800259      -95.590530      -31.363909
 H         -32.919346      -97.246254      -30.749054
