20
 generated by VMD
 C         -40.140053     -105.063347      -37.045902
 N         -39.677040     -103.998009      -37.051651
 H         -39.969204     -108.481773      -35.291187
 H         -40.479939     -106.101227      -36.845352
 C         -39.645771     -108.614662      -34.277874
 C         -38.489712     -108.074226      -33.620384
 C         -40.340923     -109.856155      -33.660793
 C         -38.951302     -107.707161      -32.160320
 C         -40.604149     -109.528984      -32.137520
 C         -39.450207     -108.912338      -31.381775
 H         -37.957443     -107.212807      -34.166279
 H         -37.759094     -108.971519      -33.539192
 H         -41.266068     -110.195740      -34.142181
 H         -39.584263     -110.667900      -33.859264
 H         -39.858875     -107.056618      -32.131927
 H         -38.211010     -107.182816      -31.577164
 H         -40.933319     -110.423973      -31.638426
 H         -41.425629     -108.777115      -31.982759
 H         -39.683929     -108.715134      -30.364294
 H         -38.532997     -109.712601      -31.374695
