20
 generated by VMD
 C         -15.115936      -46.204681       -6.122214
 N         -14.756003      -47.247658       -5.891627
 H         -15.641886      -44.845909       -9.367242
 H         -14.625707      -44.977543      -10.728077
 C         -15.670861      -45.009373      -10.470222
 C         -16.462105      -43.811199      -11.133632
 C         -16.372112      -46.264568      -10.802238
 C         -16.652349      -43.893509      -12.616689
 C         -16.534557      -46.440022      -12.338759
 C         -17.268887      -45.208038      -12.975842
 H         -15.867096      -42.941483      -10.894944
 H         -17.364788      -43.722672      -10.559772
 H         -15.972031      -47.214836      -10.412601
 H         -17.336346      -46.185535      -10.345812
 H         -15.727809      -43.713455      -13.167552
 H         -17.371593      -43.153805      -12.947583
 H         -17.128071      -47.358570      -12.563845
 H         -15.608797      -46.557350      -12.768723
 H         -17.371414      -45.214397      -14.092695
 H         -18.233370      -45.174698      -12.499556
