20
 generated by VMD
 C         -30.545790      -93.356613      -25.137224
 N         -29.585249      -93.861679      -25.470566
 H         -33.709801      -91.694717      -26.403946
 H         -31.539017      -92.984444      -24.852165
 C         -34.104977      -91.629227      -27.450104
 C         -35.425652      -92.252777      -27.786497
 C         -33.362446      -91.043625      -28.537386
 C         -36.274315      -91.442307      -28.775187
 C         -34.186939      -90.323769      -29.629477
 C         -35.452656      -91.111534      -30.041384
 H         -36.104061      -92.526886      -26.921160
 H         -35.189331      -93.238670      -28.225609
 H         -32.591995      -90.364655      -28.149944
 H         -32.859005      -91.823128      -29.072815
 H         -36.540321      -90.548820      -28.220348
 H         -37.234810      -91.947487      -28.926872
 H         -33.684986      -90.240074      -30.578268
 H         -34.455357      -89.237740      -29.311325
 H         -36.220280      -90.554802      -30.531572
 H         -35.280449      -91.903252      -30.760658
