20
 generated by VMD
 C          -1.354697       -9.604424        1.167782
 N          -1.839125       -9.818678        0.162842
 H          -3.035984      -11.997383        1.549337
 H          -3.942659      -12.183744        3.029159
 C          -3.655454      -12.674645        2.083207
 C          -2.999294      -13.995644        2.524062
 C          -4.994988      -12.879367        1.418376
 C          -3.963876      -14.885509        3.230099
 C          -5.962196      -13.742499        2.307004
 C          -5.287745      -15.115517        2.519988
 H          -2.129414      -13.710953        3.149575
 H          -2.537333      -14.396692        1.667165
 H          -5.456375      -11.856362        1.131217
 H          -4.841915      -13.444634        0.427538
 H          -4.216443      -14.546116        4.242764
 H          -3.592077      -15.929955        3.369996
 H          -6.919354      -13.840113        1.786625
 H          -6.194873      -13.283180        3.242529
 H          -5.909194      -15.711492        3.231934
 H          -5.158387      -15.707686        1.560136
