20
 generated by VMD
 C         -11.857837      -25.723106       -0.862845
 N         -12.242917      -25.373039        0.137499
 H          -8.125937      -26.552504       -1.542343
 H          -9.174329      -25.822472       -2.695328
 C          -8.118209      -25.940052       -2.431366
 C          -7.451890      -26.724049       -3.548476
 C          -7.643192      -24.552105       -2.220719
 C          -7.198456      -25.954517       -4.824444
 C          -7.407339      -23.855352       -3.490592
 C          -6.557794      -24.570147       -4.500628
 H          -8.065729      -27.553917       -3.780470
 H          -6.556138      -27.015232       -3.101740
 H          -8.333167      -23.959072       -1.635519
 H          -6.683426      -24.555004       -1.681058
 H          -8.128050      -25.753054       -5.320783
 H          -6.493889      -26.468189       -5.469243
 H          -6.983163      -22.874641       -3.268499
 H          -8.397702      -23.700560       -3.909863
 H          -6.583055      -23.922266       -5.379256
 H          -5.509562      -24.725721       -4.093647
