20
 generated by VMD
 C         -61.123459     -154.958130      -53.533443
 N         -61.377190     -154.643600      -52.393150
 H         -57.832497     -154.849365      -52.541031
 H         -60.871296     -155.190765      -54.584915
 C         -57.087364     -154.415741      -51.899361
 C         -57.330650     -154.171890      -50.446480
 C         -55.824902     -153.957153      -52.499111
 C         -56.183117     -154.610977      -49.539776
 C         -54.758022     -154.388016      -51.618755
 C         -54.932724     -153.972107      -50.129738
 H         -58.208847     -154.789001      -50.118271
 H         -57.421993     -153.076233      -50.338814
 H         -55.839699     -154.390961      -53.510311
 H         -55.868469     -152.885696      -52.654003
 H         -56.144855     -155.647507      -49.470009
 H         -56.122379     -154.239838      -48.536491
 H         -53.719189     -154.030670      -51.903660
 H         -54.679302     -155.422241      -51.722324
 H         -54.107574     -154.460526      -49.476898
 H         -54.973095     -152.867050      -50.126114
