20
 generated by VMD
 C         -23.571543      -54.776218      -14.889571
 N         -23.357054      -54.135548      -15.790666
 H         -20.080496      -54.481483      -15.457269
 H         -23.283583      -55.294685      -13.960210
 C         -19.482752      -55.152992      -14.869319
 C         -18.977797      -54.601044      -13.511170
 C         -19.087482      -56.544987      -15.260772
 C         -18.756767      -55.714878      -12.435719
 C         -18.791740      -57.554531      -14.213453
 C         -18.060064      -56.960236      -12.956134
 H         -19.783823      -53.853573      -13.220023
 H         -18.096474      -53.951553      -13.699533
 H         -19.948162      -56.877991      -15.933071
 H         -18.183512      -56.633320      -15.942901
 H         -19.738489      -56.087608      -12.154798
 H         -18.251963      -55.367989      -11.542337
 H         -18.210125      -58.356937      -14.561340
 H         -19.762835      -57.970161      -13.892884
 H         -18.132586      -57.778912      -12.182595
 H         -17.009960      -56.704346      -13.233778
