20
 generated by VMD
 C         -40.973904     -100.856339      -32.848656
 N         -41.802864     -101.332413      -32.221077
 H         -38.541214     -102.846649      -32.231224
 H         -40.140709     -100.513641      -33.534672
 C         -37.465710     -102.823456      -32.013939
 C         -36.296902     -102.699608      -32.879528
 C         -37.202106     -102.927719      -30.497927
 C         -35.152412     -101.770088      -32.256165
 C         -36.324425     -101.724037      -30.149555
 C         -34.954128     -101.854729      -30.875999
 H         -36.673847     -102.186478      -33.754963
 H         -35.902287     -103.687401      -33.164848
 H         -38.186405     -102.882362      -29.842426
 H         -36.653114     -103.793655      -30.168930
 H         -35.531399     -100.815895      -32.584167
 H         -34.280712     -101.967827      -32.762932
 H         -36.222954     -101.787918      -29.126598
 H         -36.868801     -100.761581      -30.381563
 H         -34.229347     -101.116158      -30.514233
 H         -34.527161     -102.779556      -30.491074
