20
 generated by VMD
 C         -19.834787      -61.973938      -17.736378
 N         -19.842754      -61.819714      -16.583208
 H         -21.931120      -64.757164      -16.493513
 H         -20.119967      -62.212868      -18.809374
 C         -22.876745      -64.903648      -16.955568
 C         -23.324795      -64.347725      -18.281891
 C         -24.065989      -65.263046      -16.109543
 C         -24.518356      -64.931488      -19.042864
 C         -25.295328      -65.830162      -16.834700
 C         -25.749399      -65.091393      -18.107817
 H         -22.468699      -64.336037      -18.910034
 H         -23.604561      -63.277134      -18.187988
 H         -23.696526      -65.985176      -15.415561
 H         -24.388588      -64.498718      -15.340337
 H         -24.328741      -65.901978      -19.557257
 H         -24.839691      -64.143829      -19.737394
 H         -26.182863      -65.889099      -16.158709
 H         -24.959806      -66.832092      -17.194296
 H         -26.584490      -65.605347      -18.597290
 H         -26.082977      -64.085625      -17.636967
