20
 generated by VMD
 C         -21.776245      -55.689568      -17.663034
 N         -20.677881      -55.465652      -18.049133
 H         -23.128695      -58.258617      -14.949602
 H         -22.753613      -56.045494      -17.220966
 C         -22.198917      -58.855553      -14.836628
 C         -21.474403      -58.840580      -13.587979
 C         -21.669567      -59.682392      -15.977804
 C         -21.013548      -60.295666      -13.219427
 C         -20.253000      -60.203838      -15.655200
 C         -20.174791      -60.969830      -14.281571
 H         -22.055393      -58.500160      -12.736233
 H         -20.618439      -58.106537      -13.703488
 H         -22.409470      -60.465260      -16.235641
 H         -21.468029      -58.920273      -16.748556
 H         -21.920675      -60.857208      -13.193650
 H         -20.647789      -60.405659      -12.198587
 H         -19.507387      -59.387856      -15.709981
 H         -20.118229      -61.041695      -16.336349
 H         -20.371557      -62.066650      -14.268714
 H         -19.082880      -60.898491      -13.914014
