20
 generated by VMD
 C         -28.428623      -85.917068      -26.897488
 N         -27.443731      -85.681900      -26.313320
 H         -31.410362      -85.093460      -25.690458
 H         -29.366341      -86.234306      -27.373894
 C         -31.893517      -86.052048      -25.667965
 C         -32.512703      -86.601097      -24.359118
 C         -32.028629      -86.966370      -26.817579
 C         -33.884422      -87.204590      -24.682077
 C         -33.416843      -87.496094      -27.106869
 C         -33.929302      -88.176567      -25.850060
 H         -32.719261      -85.716011      -23.621733
 H         -31.927307      -87.349174      -23.862036
 H         -31.810789      -86.383247      -27.695713
 H         -31.253433      -87.795273      -26.868776
 H         -34.382542      -86.303017      -24.954336
 H         -34.103893      -87.633179      -23.702991
 H         -33.411442      -88.139435      -27.980213
 H         -34.199619      -86.672569      -27.241682
 H         -35.006523      -88.536217      -26.075825
 H         -33.384731      -89.078880      -25.553595
