20
 generated by VMD
 C         -41.576199     -119.423378      -34.509720
 N         -41.186352     -119.911934      -35.466827
 H         -43.322262     -118.223099      -36.597256
 H         -41.835854     -118.694153      -33.684544
 C         -43.812836     -118.178261      -37.597626
 C         -42.944077     -118.075127      -38.824978
 C         -45.140194     -117.566238      -37.616211
 C         -43.727646     -118.646988      -40.018406
 C         -45.925907     -117.843727      -38.819561
 C         -45.095112     -117.871071      -40.195774
 H         -42.049118     -118.691826      -38.751381
 H         -42.562569     -117.010605      -39.045498
 H         -45.809555     -117.795906      -36.801430
 H         -44.785873     -116.469963      -37.487164
 H         -43.932304     -119.764091      -39.934460
 H         -43.204849     -118.498543      -40.996510
 H         -46.824295     -117.221344      -39.115524
 H         -46.244732     -118.881264      -38.763222
 H         -45.618011     -118.237564      -41.023396
 H         -44.762398     -116.855736      -40.454357
