20
 generated by VMD
 C         -49.697231     -127.763878      -39.016426
 N         -49.766571     -126.709122      -38.524494
 H         -47.174969     -125.743401      -40.899437
 H         -49.408115     -128.709167      -39.483109
 C         -46.183495     -125.146156      -40.907570
 C         -44.888672     -125.511147      -40.301292
 C         -46.340405     -123.629112      -40.894352
 C         -43.679306     -124.789688      -41.002132
 C         -45.194126     -122.956367      -41.526352
 C         -43.869884     -123.318130      -40.846268
 H         -44.645184     -126.593178      -40.349339
 H         -44.885246     -125.300774      -39.223022
 H         -47.170937     -123.043640      -41.344765
 H         -46.299332     -123.382179      -39.857685
 H         -43.504166     -125.186699      -41.990299
 H         -42.839725     -125.044403      -40.381485
 H         -45.382931     -121.844505      -41.340996
 H         -45.007187     -123.122902      -42.606358
 H         -43.019215     -122.797058      -41.209858
 H         -43.810322     -123.123482      -39.734455
