20
 generated by VMD
 C         -68.640007     -185.394012      -66.957748
 N         -67.684425     -184.758499      -66.841583
 H         -68.967781     -188.155182      -64.644943
 H         -69.614037     -185.885605      -67.021202
 C         -69.466255     -187.778534      -63.780216
 C         -69.537941     -186.269608      -63.802536
 C         -70.248260     -188.604172      -62.849834
 C         -69.578827     -185.598114      -62.420021
 C         -70.052383     -188.020905      -61.431679
 C         -70.445297     -186.453568      -61.458595
 H         -70.272591     -185.860718      -64.431541
 H         -68.647896     -185.973221      -64.232521
 H         -71.253891     -188.676697      -63.197903
 H         -69.922981     -189.630600      -62.943562
 H         -69.799248     -184.513123      -62.535233
 H         -68.592949     -185.594666      -61.943157
 H         -69.019730     -188.063110      -61.103409
 H         -70.796997     -188.548386      -60.901787
 H         -71.479912     -186.489792      -61.764751
 H         -70.243523     -185.833176      -60.447590
