20
 generated by VMD
 C         -80.140114     -206.910858      -74.027565
 N         -80.502235     -206.384613      -75.036018
 H         -77.412231     -207.046982      -72.644516
 H         -79.596275     -207.395035      -73.260170
 C         -76.806374     -207.393341      -71.814125
 C         -75.439148     -206.751801      -71.519920
 C         -77.293190     -208.571487      -71.012085
 C         -75.495323     -206.414993      -70.013268
 C         -77.083580     -208.329056      -69.575577
 C         -75.825005     -207.693527      -69.159843
 H         -75.091217     -205.991684      -72.247429
 H         -74.617867     -207.449448      -71.593094
 H         -78.267525     -208.928146      -71.370110
 H         -76.603798     -209.431793      -71.340424
 H         -76.309807     -205.697220      -69.963661
 H         -74.624123     -205.910675      -69.535378
 H         -77.352089     -209.288269      -69.022171
 H         -77.900276     -207.628128      -69.279877
 H         -76.018158     -207.209549      -68.217018
 H         -74.986061     -208.369949      -69.004372
