20
 generated by VMD
 C         -38.442245      -98.730339      -27.748167
 N         -38.088638      -99.503891      -26.945141
 H         -37.414658      -97.598473      -30.492758
 H         -38.875416      -97.972450      -28.350317
 C         -36.266296      -97.465927      -30.566944
 C         -35.502110      -97.981361      -31.859106
 C         -35.670532      -96.652473      -29.452433
 C         -34.503555      -96.994606      -32.274689
 C         -34.286709      -96.056992      -29.829660
 C         -33.613712      -96.500687      -31.142834
 H         -36.173897      -98.186974      -32.779285
 H         -35.081909      -98.927658      -31.560503
 H         -36.300190      -95.706558      -29.292959
 H         -35.673489      -97.256165      -28.529631
 H         -35.068100      -96.115479      -32.553894
 H         -33.839699      -97.370071      -32.966064
 H         -33.630974      -96.345810      -29.008047
 H         -34.375137      -94.925598      -29.862909
 H         -32.824364      -95.786858      -31.373398
 H         -33.049191      -97.479660      -31.089796
