20
 generated by VMD
 C         -46.485882     -124.426193      -36.276814
 N         -46.995289     -125.276665      -35.668575
 H         -44.408577     -121.800850      -37.940796
 H         -46.187576     -123.711632      -37.053654
 C         -44.604290     -121.683594      -39.005802
 C         -43.237610     -121.687798      -39.805252
 C         -45.704906     -120.885597      -39.571392
 C         -43.528763     -121.919197      -41.278469
 C         -45.943855     -121.216835      -41.029636
 C         -44.677448     -120.998581      -41.864349
 H         -42.667679     -122.480591      -39.370323
 H         -42.782200     -120.640739      -39.765606
 H         -46.666100     -121.098808      -39.021069
 H         -45.588932     -119.858086      -39.447166
 H         -43.904472     -122.953362      -41.367958
 H         -42.640408     -121.864349      -41.861610
 H         -46.714878     -120.658066      -41.598831
 H         -46.262383     -122.377861      -41.145458
 H         -44.719555     -121.171188      -42.908504
 H         -44.362118     -119.914604      -41.883034
