20
 generated by VMD
 C         -13.291768      -44.782242       -6.322112
 N         -14.206342      -44.252037       -5.969516
 H         -15.062919      -44.667446       -8.958669
 H         -14.347877      -43.967392      -10.326499
 C         -15.254668      -44.394211      -10.019372
 C         -16.409586      -43.372181      -10.065946
 C         -15.624365      -45.654434      -10.794660
 C         -16.959625      -43.041431      -11.456731
 C         -16.136408      -45.223812      -12.180758
 C         -17.360723      -44.276909      -12.219009
 H         -16.175531      -42.433044       -9.484085
 H         -17.240805      -43.767189       -9.463096
 H         -14.837764      -46.379456      -10.873755
 H         -16.379801      -46.186710      -10.252602
 H         -16.213125      -42.411716      -11.989253
 H         -17.851723      -42.422012      -11.318385
 H         -16.239828      -46.155651      -12.827451
 H         -15.382557      -44.662766      -12.689539
 H         -17.587523      -43.975048      -13.246550
 H         -18.146137      -44.798977      -11.762322
