20
 generated by VMD
 C         -57.569927     -150.800949      -48.596252
 N         -58.334743     -151.650223      -48.542191
 H         -54.507847     -148.980881      -47.373333
 H         -56.839481     -150.045944      -48.681114
 C         -54.482861     -148.717239      -48.411800
 C         -53.872925     -149.750061      -49.333572
 C         -54.586277     -147.328079      -48.819099
 C         -54.310493     -149.633194      -50.842594
 C         -55.150311     -147.238373      -50.238995
 C         -54.331974     -148.099838      -51.174911
 H         -53.997601     -150.767044      -49.104420
 H         -52.788254     -149.696808      -49.224346
 H         -55.352943     -146.967728      -48.028454
 H         -53.705971     -146.691742      -48.600376
 H         -55.262707     -150.047424      -51.141842
 H         -53.545925     -150.192596      -51.386192
 H         -54.955040     -146.106354      -50.377609
 H         -56.205791     -147.418777      -50.330780
 H         -54.662937     -147.962280      -52.277691
 H         -53.265026     -147.835037      -51.012737
