20
 generated by VMD
 C         -50.545895     -145.055145      -45.125359
 N         -50.534031     -145.611588      -44.103561
 H         -53.175148     -143.585403      -46.022446
 H         -50.379807     -144.577087      -46.073574
 C         -53.497952     -143.354630      -47.027645
 C         -52.593811     -143.297668      -48.129025
 C         -54.706417     -142.459427      -47.002174
 C         -53.310654     -143.403442      -49.412796
 C         -55.502415     -142.487259      -48.368160
 C         -54.502876     -142.360397      -49.558174
 H         -51.777626     -144.052277      -48.063602
 H         -52.126263     -142.248642      -48.259293
 H         -55.324566     -142.865295      -46.157818
 H         -54.389805     -141.440033      -46.769878
 H         -53.859356     -144.419800      -49.538734
 H         -52.694820     -143.344849      -50.340843
 H         -56.331974     -141.762558      -48.402435
 H         -56.001377     -143.417007      -48.633755
 H         -55.027031     -142.487915      -50.601894
 H         -53.890644     -141.420792      -49.579159
