20
 generated by VMD
 C         -62.629139     -172.167358      -55.202141
 N         -61.839279     -172.962799      -55.348434
 H         -61.643944     -171.203430      -57.927635
 H         -63.334503     -171.372269      -55.236595
 C         -62.437565     -170.498978      -58.241135
 C         -62.337910     -169.095474      -58.075146
 C         -63.723991     -171.188416      -58.522831
 C         -63.652779     -168.254120      -58.285835
 C         -64.975937     -170.207748      -58.737705
 C         -64.959816     -168.950439      -57.809814
 H         -61.535206     -168.759827      -58.638924
 H         -62.026390     -168.925766      -56.954765
 H         -63.536690     -171.771896      -59.419983
 H         -64.079880     -171.886551      -57.748043
 H         -63.666958     -167.857147      -59.329140
 H         -63.500809     -167.351456      -57.734154
 H         -65.926781     -170.743652      -58.563728
 H         -65.111931     -169.847214      -59.837513
 H         -65.802040     -168.295227      -57.875053
 H         -64.815781     -169.307190      -56.705124
