20
 generated by VMD
 C         -70.226654     -182.803192      -65.934174
 N         -71.119682     -183.498642      -65.623123
 H         -67.964645     -182.402267      -63.054035
 H         -69.423141     -182.174057      -66.210625
 C         -67.320702     -182.201904      -62.181629
 C         -67.599724     -183.121155      -61.007664
 C         -66.993256     -180.795914      -61.821358
 C         -66.641495     -183.040771      -59.894123
 C         -66.199371     -180.723312      -60.526215
 C         -66.542358     -181.630676      -59.370411
 H         -67.571350     -184.250885      -61.275494
 H         -68.605499     -182.763855      -60.728836
 H         -66.455811     -180.238449      -62.617325
 H         -67.893494     -180.294647      -61.531818
 H         -65.743896     -183.599365      -60.182640
 H         -66.860527     -183.595810      -59.079739
 H         -66.308136     -179.758652      -60.043964
 H         -65.175415     -180.766907      -60.901909
 H         -65.689789     -181.661621      -58.686119
 H         -67.461586     -181.395935      -58.840511
