20
 generated by VMD
 C         -13.952540      -28.175232       -3.396033
 N         -14.045913      -27.243862       -3.984697
 H         -10.169477      -28.791656       -2.523373
 H         -10.071138      -27.416368       -3.814538
 C          -9.537735      -28.224432       -3.214465
 C          -9.049397      -29.222488       -4.391432
 C          -8.414168      -27.557652       -2.436735
 C          -7.803409      -28.790709       -5.138930
 C          -7.312795      -27.058041       -3.315995
 C          -6.759477      -28.102844       -4.287188
 H          -9.936988      -29.603506       -4.964953
 H          -8.776396      -30.163614       -3.845146
 H          -8.855345      -26.734472       -1.824010
 H          -7.942362      -28.282454       -1.790692
 H          -8.019612      -28.057817       -5.906841
 H          -7.370845      -29.594862       -5.774242
 H          -6.518376      -26.585104       -2.738029
 H          -7.786124      -26.189754       -3.854489
 H          -5.921861      -27.689018       -4.915532
 H          -6.335243      -28.805111       -3.591327
