20
 generated by VMD
 C         -11.802848      -25.803059       -0.888233
 N         -12.040590      -25.255537        0.068340
 H          -8.148213      -26.572296       -1.455723
 H          -9.169710      -25.808716       -2.646414
 C          -8.133269      -25.906855       -2.375081
 C          -7.400113      -26.662460       -3.454829
 C          -7.552901      -24.477085       -2.171106
 C          -7.314011      -25.913340       -4.724020
 C          -7.442037      -23.682425       -3.492107
 C          -6.642107      -24.510054       -4.511580
 H          -7.870703      -27.715542       -3.570448
 H          -6.361149      -26.702185       -3.047263
 H          -8.080395      -23.851221       -1.459920
 H          -6.487126      -24.574274       -1.878742
 H          -8.341805      -25.800920       -5.128614
 H          -6.697721      -26.449694       -5.464240
 H          -7.043275      -22.666594       -3.330688
 H          -8.452761      -23.475626       -3.882479
 H          -6.480137      -23.930717       -5.420500
 H          -5.575480      -24.683918       -4.246517
