20
 generated by VMD
 C         -67.501595     -179.733078      -58.400673
 N         -68.536476     -180.210342      -58.513023
 H         -66.983253     -176.636047      -59.803413
 H         -66.509071     -179.366211      -58.340694
 C         -66.174255     -176.106827      -60.063774
 C         -66.014374     -175.120941      -61.186127
 C         -64.913536     -176.562057      -59.415539
 C         -64.911186     -174.066162      -61.070564
 C         -63.769829     -175.553329      -59.377357
 C         -63.567692     -174.653610      -60.605774
 H         -66.923058     -174.647522      -61.553043
 H         -65.794594     -175.813248      -61.986240
 H         -65.084984     -176.674042      -58.273880
 H         -64.509956     -177.526443      -59.670780
 H         -65.241264     -173.282639      -60.409702
 H         -64.771729     -173.468613      -62.018879
 H         -62.863419     -176.104065      -59.250343
 H         -63.791103     -174.912201      -58.472630
 H         -63.049587     -173.806244      -60.144920
 H         -62.965298     -175.087784      -61.358772
