20
 generated by VMD
 C         -24.808241      -70.474945      -16.543518
 N         -25.048960      -70.878395      -15.485250
 H         -23.831553      -68.281769      -18.841658
 H         -24.509359      -70.184303      -17.500963
 C         -24.491926      -68.631981      -19.602024
 C         -23.868542      -69.361542      -20.779726
 C         -25.834770      -67.985123      -19.601946
 C         -24.739559      -70.293793      -21.444822
 C         -26.736895      -69.172287      -20.302769
 C         -26.182228      -69.663765      -21.613871
 H         -23.143303      -70.083000      -20.342787
 H         -23.495150      -68.597275      -21.391470
 H         -26.130264      -67.908127      -18.523046
 H         -26.076420      -66.999092      -20.063049
 H         -24.779074      -71.267670      -20.978630
 H         -24.431067      -70.534958      -22.494125
 H         -27.737803      -68.805923      -20.503069
 H         -26.762445      -69.935051      -19.538685
 H         -26.682322      -70.548622      -22.030436
 H         -26.146395      -68.853333      -22.386110
