20
 generated by VMD
 C         -77.341354     -202.943527      -69.370766
 N         -77.675941     -203.730377      -68.632248
 H         -74.980141     -201.645340      -67.135406
 H         -76.906593     -202.126038      -69.998314
 C         -74.914368     -201.431946      -68.177864
 C         -75.219788     -200.028381      -68.563187
 C         -73.919212     -202.421478      -68.885124
 C         -74.700882     -199.517319      -69.876297
 C         -73.145180     -201.593719      -70.039841
 C         -74.145409     -200.637161      -70.735222
 H         -74.684456     -199.410980      -67.780449
 H         -76.199890     -199.746384      -68.345924
 H         -73.252525     -202.686996      -68.077492
 H         -74.513374     -203.281128      -69.261208
 H         -73.872810     -198.746857      -69.736626
 H         -75.603859     -199.011505      -70.349792
 H         -72.645882     -202.210754      -70.798851
 H         -72.289871     -201.168365      -69.503510
 H         -73.659111     -200.205948      -71.685410
 H         -74.909691     -201.262009      -71.073715
