20
 generated by VMD
 C         -21.224272      -52.462368      -11.432890
 N         -21.430920      -52.882160      -10.378188
 H         -19.706903      -50.160908      -13.686096
 H         -20.911600      -52.036659      -12.485396
 C         -18.882580      -50.832813      -13.272855
 C         -18.407257      -51.921852      -14.218372
 C         -18.079376      -50.404564      -12.103573
 C         -16.913252      -52.012447      -14.301548
 C         -16.586004      -50.330002      -12.390991
 C         -16.103098      -51.672161      -13.039729
 H         -18.829000      -51.877071      -15.228104
 H         -18.743244      -52.899067      -13.836189
 H         -18.314993      -49.411777      -11.619473
 H         -18.292150      -51.196167      -11.401083
 H         -16.631695      -51.252720      -15.064185
 H         -16.525875      -53.022873      -14.583865
 H         -16.058208      -50.121029      -11.406845
 H         -16.375751      -49.483246      -13.079182
 H         -15.030190      -51.639801      -13.306871
 H         -16.228680      -52.420204      -12.241735
