20
 generated by VMD
 C          -2.422575       -8.613851        0.159359
 N          -1.613672       -8.879914       -0.587625
 H          -2.605015       -9.912662        2.761101
 H          -1.934647      -11.417340        3.661228
 C          -2.832061      -10.982431        3.177856
 C          -3.176264      -11.846705        1.945752
 C          -3.951654      -11.018953        4.256439
 C          -3.247805      -13.268671        2.491744
 C          -4.124639      -12.439876        4.768064
 C          -4.318885      -13.503467        3.612788
 H          -2.380626      -11.777359        1.185816
 H          -4.189163      -11.568131        1.515630
 H          -3.753192      -10.267944        5.008501
 H          -4.856961      -10.620770        3.719353
 H          -2.281574      -13.633454        2.899181
 H          -3.573104      -13.976023        1.707283
 H          -4.919904      -12.420548        5.461784
 H          -3.264433      -12.709689        5.379881
 H          -4.209093      -14.530760        3.981933
 H          -5.303432      -13.429326        3.153726
