20
 generated by VMD
 C         -40.695900     -119.169266      -35.221607
 N         -39.667267     -118.668106      -35.164318
 H         -43.671173     -116.883820      -36.221008
 H         -41.497150     -119.948761      -35.303169
 C         -44.077641     -117.156937      -37.174168
 C         -42.989204     -117.485168      -38.190529
 C         -45.353310     -116.496872      -37.575798
 C         -43.677834     -118.421394      -39.194969
 C         -45.991882     -117.153114      -38.767735
 C         -44.935253     -117.660728      -39.802383
 H         -42.183086     -118.104431      -37.862694
 H         -42.566090     -116.601334      -38.660595
 H         -45.953526     -116.484802      -36.711205
 H         -45.098747     -115.461731      -37.716732
 H         -43.849777     -119.391090      -38.706009
 H         -43.165573     -118.728264      -40.096424
 H         -46.889114     -116.676292      -39.238808
 H         -46.443504     -118.103645      -38.389488
 H         -45.390949     -118.068848      -40.623596
 H         -44.548244     -116.745743      -40.301281
