20
 generated by VMD
 C         -46.410339     -124.387985      -35.982883
 N         -46.928726     -125.301018      -35.558617
 H         -44.478474     -121.622467      -37.917629
 H         -45.977821     -123.435722      -36.327305
 C         -44.525360     -121.370079      -38.996670
 C         -43.185581     -121.584885      -39.847900
 C         -45.771095     -120.867485      -39.526772
 C         -43.511204     -121.764038      -41.355709
 C         -45.894989     -121.015656      -41.070984
 C         -44.620411     -120.942314      -41.876190
 H         -42.720116     -122.525642      -39.355404
 H         -42.539032     -120.767761      -39.719604
 H         -46.635452     -121.262810      -38.980801
 H         -45.756012     -119.739723      -39.396774
 H         -43.962723     -122.735954      -41.416260
 H         -42.617611     -121.507988      -41.995499
 H         -46.601913     -120.414108      -41.555649
 H         -46.322334     -121.962425      -41.113552
 H         -44.705639     -121.245110      -42.938457
 H         -44.266178     -119.909935      -41.869938
