20
 generated by VMD
 C         -24.610693      -70.054695      -16.408226
 N         -24.621349      -70.627159      -15.426519
 H         -23.603773      -67.487656      -19.193436
 H         -24.812294      -69.464676      -17.387314
 C         -24.391567      -68.151169      -19.582062
 C         -23.877178      -68.835182      -20.889008
 C         -25.806776      -67.710251      -19.543901
 C         -24.667519      -70.007156      -21.335501
 C         -26.628180      -69.056915      -19.897182
 C         -26.153786      -69.593628      -21.334497
 H         -22.868988      -69.162125      -20.776417
 H         -23.720022      -68.143806      -21.746847
 H         -26.019054      -67.498428      -18.435053
 H         -25.914909      -66.819725      -20.192263
 H         -24.729136      -70.832535      -20.574871
 H         -24.435446      -70.348381      -22.321121
 H         -27.649302      -68.862930      -19.729013
 H         -26.418432      -69.733948      -19.147299
 H         -26.752310      -70.435341      -21.711887
 H         -26.253721      -68.848717      -22.147053
