20
 generated by VMD
 C         -73.945015     -200.738434      -65.526894
 N         -72.884842     -201.106796      -65.234123
 H         -73.855125     -198.126495      -66.563507
 H         -74.875458     -200.104156      -65.623116
 C         -73.860580     -197.517258      -67.492340
 C         -74.323631     -196.058456      -67.388367
 C         -73.195183     -198.120087      -68.707031
 C         -73.598686     -195.203278      -68.523911
 C         -73.734703     -197.403320      -69.952873
 C         -73.773918     -195.892624      -69.845329
 H         -74.133682     -195.624298      -66.306259
 H         -75.291290     -195.909454      -67.732468
 H         -72.122528     -197.947098      -68.594437
 H         -73.515968     -199.168854      -68.779411
 H         -72.504013     -195.076538      -68.346123
 H         -73.977974     -194.179245      -68.580200
 H         -74.728355     -197.766403      -70.123711
 H         -73.204285     -197.738846      -70.900658
 H         -73.105324     -195.419830      -70.500191
 H         -74.818474     -195.387009      -70.074509
