20
 generated by VMD
 C         -77.421669     -202.988205      -68.542931
 N         -77.604843     -203.952484      -67.978371
 H         -74.706688     -201.386612      -67.154373
 H         -77.294060     -202.231949      -69.234604
 C         -74.651543     -201.019409      -68.159782
 C         -75.164864     -199.638107      -68.542961
 C         -73.867729     -201.811615      -69.152763
 C         -74.285645     -198.927933      -69.761436
 C         -72.971703     -201.116562      -70.158745
 C         -73.953880     -199.921280      -70.808731
 H         -75.075279     -198.963120      -67.700417
 H         -76.160202     -199.648361      -68.856499
 H         -73.180290     -202.436691      -68.616669
 H         -74.527565     -202.529160      -69.705299
 H         -73.426270     -198.587067      -69.183762
 H         -74.874840     -198.101868      -70.176231
 H         -72.562286     -201.820999      -70.847153
 H         -72.234009     -200.558151      -69.733162
 H         -73.312294     -199.484634      -71.586746
 H         -74.836266     -200.379044      -71.202881
