20
 generated by VMD
 C         -63.214985     -174.405716      -56.728310
 N         -62.444115     -175.008408      -56.121197
 H         -66.487816     -173.087448      -58.378853
 H         -64.036446     -173.945740      -57.266338
 C         -65.677025     -172.472321      -58.581463
 C         -65.712700     -170.895676      -58.101845
 C         -64.655045     -172.933151      -59.738045
 C         -64.286499     -170.327423      -58.128136
 C         -63.286404     -172.295593      -59.403271
 C         -63.437424     -170.835312      -59.315624
 H         -66.269775     -170.855011      -57.234711
 H         -66.291672     -170.399887      -59.007282
 H         -64.555344     -174.134033      -59.758034
 H         -65.055840     -172.512070      -60.707249
 H         -63.652714     -170.610794      -57.250221
 H         -64.219223     -169.218185      -58.149078
 H         -62.486130     -172.497818      -60.140823
 H         -62.773533     -172.685928      -58.536358
 H         -62.464298     -170.352539      -59.149765
 H         -63.865776     -170.381073      -60.296825
