20
 generated by VMD
 C         -57.888920     -166.318237      -56.334698
 N         -58.299107     -167.091202      -55.540504
 H         -60.791561     -165.513351      -54.507023
 H         -57.441502     -165.707443      -57.080372
 C         -61.595558     -165.597855      -55.256355
 C         -61.783878     -166.802338      -56.144585
 C         -62.463844     -164.392914      -55.531219
 C         -63.216015     -167.152954      -56.126923
 C         -63.898712     -164.809616      -55.596313
 C         -64.064262     -165.969498      -56.454281
 H         -61.072262     -167.572617      -55.821056
 H         -61.350651     -166.477661      -57.062176
 H         -62.323906     -163.568146      -54.739498
 H         -62.269619     -163.932053      -56.487362
 H         -63.534454     -167.471527      -55.094864
 H         -63.336273     -167.949097      -56.853500
 H         -64.540924     -163.941010      -56.081505
 H         -64.364883     -164.989594      -54.529022
 H         -65.094292     -166.351883      -56.594196
 H         -63.769745     -165.653275      -57.515850
