20
 generated by VMD
 C         -19.958961      -51.674908      -10.209842
 N         -20.827665      -51.213379       -9.600557
 H         -17.902172      -49.171947      -10.330557
 H         -19.058517      -52.300529      -10.529698
 C         -17.231035      -49.075539      -11.227295
 C         -16.317530      -50.213470      -11.620797
 C         -17.357073      -47.935539      -12.193670
 C         -16.641529      -50.611160      -13.075304
 C         -17.344082      -48.177567      -13.761119
 C         -16.450514      -49.383823      -13.969064
 H         -16.572733      -51.091702      -10.935914
 H         -15.264491      -49.921932      -11.579749
 H         -18.334808      -47.532768      -11.989636
 H         -16.756285      -47.056419      -11.978864
 H         -17.737993      -50.897995      -13.245556
 H         -15.952559      -51.459164      -13.345995
 H         -16.828585      -47.335808      -14.232280
 H         -18.445999      -48.271355      -14.119687
 H         -16.480755      -49.621582      -15.057780
 H         -15.389075      -48.971256      -13.867516
