20
 generated by VMD
 C         -12.933377      -27.748146       -2.634377
 N         -13.900668      -27.323879       -2.998674
 H         -10.534664      -27.392851       -3.516143
 H          -9.631000      -26.625561       -4.875653
 C          -9.554576      -27.291544       -3.952641
 C          -8.945700      -28.649620       -4.344118
 C          -8.668584      -26.670353       -2.842852
 C          -7.458511      -28.503181       -4.854625
 C          -7.226190      -26.561769       -3.224455
 C          -6.612720      -27.807125       -3.768245
 H          -9.433120      -29.078558       -5.285139
 H          -8.995382      -29.295788       -3.476902
 H          -9.162766      -25.706585       -2.670008
 H          -8.858771      -27.248482       -1.962967
 H          -7.474519      -27.833612       -5.716115
 H          -7.041098      -29.520123       -5.103331
 H          -6.696842      -26.313452       -2.328944
 H          -7.096408      -25.773043       -3.973094
 H          -5.625825      -27.498543       -4.223879
 H          -6.345423      -28.435678       -2.932736
