20
 generated by VMD
 C         -12.677386      -30.173861       -8.247434
 N         -13.326771      -30.746040       -7.546482
 H         -11.200498      -30.578619       -5.136838
 H         -10.722585      -31.130987       -3.570246
 C         -10.894996      -31.433100       -4.640474
 C          -9.537210      -31.971390       -5.166482
 C         -11.983079      -32.393749       -4.795358
 C          -9.087083      -33.325737       -4.503054
 C         -11.631461      -33.733429       -4.107622
 C         -10.206291      -34.356865       -4.519176
 H          -8.700022      -31.205538       -4.979019
 H          -9.504924      -32.118874       -6.223241
 H         -12.870707      -32.007751       -4.289578
 H         -12.332925      -32.518955       -5.824939
 H          -8.728863      -33.216053       -3.464304
 H          -8.196547      -33.725521       -5.053221
 H         -12.473390      -34.386799       -4.346313
 H         -11.665692      -33.651268       -2.974104
 H          -9.960901      -35.203796       -3.905759
 H         -10.311705      -34.854782       -5.479229
