20
 generated by VMD
 C         -79.504051     -205.186783      -70.921150
 N         -80.625244     -205.463943      -70.951500
 H         -77.041321     -203.101593      -69.129585
 H         -78.452942     -204.837585      -71.087646
 C         -75.987335     -203.050766      -69.497490
 C         -75.487617     -201.952667      -70.456131
 C         -75.148849     -204.172928      -69.059746
 C         -73.965675     -201.795471      -70.329636
 C         -73.598495     -204.022461      -69.200989
 C         -73.086502     -202.963760      -70.176392
 H         -76.075172     -201.046936      -70.187981
 H         -75.747810     -202.287308      -71.454910
 H         -75.400032     -204.238968      -67.971718
 H         -75.411964     -205.143372      -69.524315
 H         -73.693047     -201.158890      -69.472839
 H         -73.538193     -201.240265      -71.211517
 H         -73.164772     -204.956329      -69.469727
 H         -73.312729     -203.760254      -68.067230
 H         -72.011581     -202.567276      -69.826523
 H         -72.963707     -203.504105      -71.156273
