20
 generated by VMD
 C         -43.250229     -121.030937      -35.540970
 N         -42.914993     -120.692146      -34.509174
 H         -44.243362     -121.759048      -38.590729
 H         -43.717991     -121.403816      -36.424835
 C         -44.176781     -120.637985      -38.729816
 C         -43.164822     -119.964317      -39.661354
 C         -45.420399     -119.823708      -38.358902
 C         -43.793304     -118.953529      -40.704617
 C         -45.881264     -118.736603      -39.382599
 C         -44.777382     -118.024895      -40.097710
 H         -42.477665     -120.652443      -40.080677
 H         -42.437958     -119.408821      -38.954533
 H         -46.085911     -120.579941      -38.112820
 H         -45.010925     -119.336906      -37.470165
 H         -44.156586     -119.750977      -41.437351
 H         -43.076630     -118.312286      -41.223881
 H         -46.534325     -118.100311      -38.839581
 H         -46.673386     -119.225471      -40.052547
 H         -45.184689     -117.177368      -40.603172
 H         -44.164032     -117.451241      -39.361588
