20
 generated by VMD
 C          -1.757035       -9.262448        1.009889
 N          -1.734710       -9.766759        0.010594
 H          -2.781252      -11.915508        1.957343
 H          -3.668756      -12.326511        3.474456
 C          -3.520173      -12.607618        2.435917
 C          -2.844028      -13.991665        2.467262
 C          -4.820505      -12.600801        1.734067
 C          -3.939631      -14.894901        3.248973
 C          -5.830760      -13.557912        2.321764
 C          -5.297092      -14.978722        2.529597
 H          -1.887917      -14.118448        2.945239
 H          -2.782349      -14.553744        1.487671
 H          -5.207811      -11.591595        1.700224
 H          -4.668278      -12.841347        0.662647
 H          -4.038553      -14.502745        4.329071
 H          -3.509737      -15.906166        3.347672
 H          -6.742165      -13.568260        1.739907
 H          -6.107000      -13.188638        3.333632
 H          -5.981631      -15.436590        3.231961
 H          -5.269411      -15.501254        1.598243
