20
 generated by VMD
 C         -40.466309      -99.820374      -29.311893
 N         -39.838097     -100.165375      -28.382923
 H         -37.359531      -98.700768      -30.812529
 H         -41.180443      -99.718491      -30.080137
 C         -36.383774      -99.100174      -30.811449
 C         -35.842552      -99.152321      -32.161659
 C         -35.402279      -98.760002      -29.692286
 C         -34.795918      -98.113152      -32.363384
 C         -34.304684      -97.804764      -29.976484
 C         -33.669006      -98.126976      -31.371708
 H         -36.785854      -99.025757      -32.775154
 H         -35.470181     -100.113319      -32.429211
 H         -35.925129      -98.501175      -28.709854
 H         -35.004215      -99.738029      -29.487417
 H         -35.087040      -97.127373      -32.589821
 H         -34.214035      -98.369965      -33.280937
 H         -33.488976      -97.909859      -29.192202
 H         -34.632526      -96.802155      -29.976318
 H         -32.814041      -97.526268      -31.562035
 H         -33.252171      -99.187965      -31.341696
