20
 generated by VMD
 C         -31.758940      -75.846771      -24.001076
 N         -31.074831      -76.266151      -24.854906
 H         -29.663963      -78.478004      -22.243706
 H         -32.106918      -75.345177      -22.976385
 C         -28.622204      -78.114090      -22.076029
 C         -27.576042      -78.314552      -23.252588
 C         -28.190756      -78.160370      -20.637659
 C         -26.267723      -77.571335      -22.931700
 C         -26.793249      -77.619858      -20.494230
 C         -25.715771      -77.934380      -21.549578
 H         -27.962837      -77.829880      -24.042721
 H         -27.355553      -79.310356      -23.502895
 H         -28.946180      -77.464592      -20.089733
 H         -28.338839      -79.158997      -20.136042
 H         -26.386772      -76.464058      -22.960548
 H         -25.533266      -77.898148      -23.719049
 H         -26.559448      -77.892677      -19.449873
 H         -26.757160      -76.475182      -20.417269
 H         -24.782547      -77.449974      -21.309464
 H         -25.533768      -78.979919      -21.418882
