20
 generated by VMD
 C         -49.831142     -127.763550      -40.420296
 N         -50.744789     -127.888962      -41.126114
 H         -46.997120     -127.418137      -42.065723
 H         -48.866714     -127.592728      -39.929592
 C         -46.822380     -126.831612      -41.156559
 C         -45.744987     -127.341537      -40.206226
 C         -46.883896     -125.319778      -41.450592
 C         -44.437965     -126.779320      -40.635990
 C         -45.417458     -124.847893      -41.805073
 C         -44.378063     -125.295509      -40.831795
 H         -45.727066     -128.421021      -40.204346
 H         -46.074253     -126.921783      -39.135437
 H         -47.717712     -125.049789      -42.232765
 H         -47.290852     -124.832748      -40.646477
 H         -44.134567     -127.198868      -41.627544
 H         -43.744965     -127.102051      -39.823956
 H         -45.517818     -123.777733      -42.044407
 H         -45.204025     -125.259155      -42.831055
 H         -43.461708     -124.889832      -41.178658
 H         -44.539803     -124.813728      -39.883347
