20
 generated by VMD
 C         -11.802432      -41.468338       -6.337262
 N         -10.919521      -42.120289       -6.589657
 H         -14.665443      -42.015350       -8.219659
 H         -15.052716      -40.898247       -9.345041
 C         -15.257324      -41.990055       -9.129302
 C         -16.693281      -42.333328       -8.833696
 C         -14.664471      -42.876877      -10.199345
 C         -17.575399      -42.469147      -10.071955
 C         -15.622236      -43.200115      -11.383958
 C         -17.034664      -43.567879      -10.995903
 H         -17.095041      -41.497860       -8.276530
 H         -16.679541      -43.290504       -8.295753
 H         -13.787406      -42.418003      -10.538772
 H         -14.395097      -43.794304       -9.711479
 H         -17.699322      -41.604900      -10.698504
 H         -18.567175      -42.764469       -9.725244
 H         -15.143316      -44.094372      -11.968904
 H         -15.590375      -42.413628      -12.096122
 H         -17.758602      -43.643826      -11.829938
 H         -17.008768      -44.585773      -10.566262
