20
 generated by VMD
 C         -10.551762      -35.468204       -8.275958
 N         -10.247221      -36.440639       -8.789168
 H         -13.595491      -37.044338       -6.755351
 H         -14.445120      -38.333626       -5.922902
 C         -14.027136      -38.091026       -6.852255
 C         -13.033461      -39.252785       -6.979924
 C         -15.080273      -38.070908       -7.976709
 C         -13.877819      -40.599609       -6.903434
 C         -15.822532      -39.380802       -8.160087
 C         -14.913381      -40.627892       -8.094922
 H         -12.347384      -39.305973       -6.128216
 H         -12.518924      -39.237141       -7.940169
 H         -15.767735      -37.222549       -7.734538
 H         -14.436748      -37.795704       -8.854713
 H         -14.439655      -40.535633       -5.903930
 H         -13.166719      -41.439034       -6.942273
 H         -16.369694      -39.318321       -9.133950
 H         -16.580965      -39.488533       -7.386248
 H         -15.588100      -41.518486       -8.087298
 H         -14.323739      -40.643902       -9.038642
