20
 generated by VMD
 C         -57.656555     -165.399200      -56.538048
 N         -57.224434     -164.557465      -57.189526
 H         -60.318230     -164.480621      -54.017136
 H         -58.012222     -166.225708      -55.908115
 C         -61.289928     -164.821594      -54.485260
 C         -61.938637     -166.095245      -54.218246
 C         -61.683006     -163.899780      -55.572601
 C         -63.469685     -166.042404      -54.450752
 C         -63.171223     -164.017212      -55.957630
 C         -63.792023     -165.349731      -55.739773
 H         -61.644772     -166.551270      -53.227459
 H         -61.476204     -166.863388      -54.827553
 H         -61.421547     -162.903702      -55.507484
 H         -61.170647     -164.249573      -56.477310
 H         -63.969997     -165.444290      -53.666782
 H         -63.769123     -167.072754      -54.402920
 H         -63.368992     -163.699280      -56.989628
 H         -63.801926     -163.263519      -55.328655
 H         -64.906647     -165.363876      -55.698669
 H         -63.359348     -166.003998      -56.479206
