20
 generated by VMD
 C         -60.987797     -172.238663      -55.235828
 N         -60.182320     -173.078659      -54.952957
 H         -62.300705     -170.559341      -57.267811
 H         -61.573681     -171.352722      -55.496155
 C         -63.092583     -169.882477      -57.291901
 C         -62.689259     -168.446335      -57.516708
 C         -64.570793     -170.063187      -57.319290
 C         -63.356377     -167.904922      -58.806213
 C         -65.108543     -169.459961      -58.612930
 C         -64.851318     -167.939087      -58.738182
 H         -61.514133     -168.258484      -57.560413
 H         -63.042641     -167.839691      -56.752197
 H         -64.867661     -171.171692      -57.291107
 H         -65.108856     -169.484314      -56.557545
 H         -62.931751     -168.394547      -59.627125
 H         -63.129757     -166.835831      -58.976151
 H         -66.192581     -169.660904      -58.570061
 H         -64.790215     -170.047531      -59.509991
 H         -65.435562     -167.611252      -59.633495
 H         -65.254486     -167.514786      -57.788853
