20
 generated by VMD
 C         -41.026592     -101.373161      -32.695934
 N         -42.013611     -101.521584      -33.286865
 H         -38.664570     -103.127670      -32.382580
 H         -40.189167     -101.619789      -32.069019
 C         -37.733734     -102.747826      -31.942726
 C         -36.495178     -102.645470      -32.949696
 C         -37.450012     -103.089447      -30.490299
 C         -35.184692     -102.248917      -32.321926
 C         -36.288475     -102.267860      -30.113537
 C         -35.013660     -102.619987      -30.935995
 H         -36.856834     -101.899063      -33.621422
 H         -36.425522     -103.578041      -33.469143
 H         -38.404335     -102.924835      -29.950029
 H         -37.146942     -104.178467      -30.473915
 H         -35.026230     -101.163292      -32.451202
 H         -34.412674     -102.782051      -32.861649
 H         -36.067467     -102.385582      -29.079397
 H         -36.472950     -101.132332      -30.229605
 H         -34.108730     -102.149658      -30.700253
 H         -34.850101     -103.702141      -30.900942
