20
 generated by VMD
 C         -19.608397      -57.837494      -17.060740
 N         -19.230577      -58.435780      -18.018492
 H         -22.456179      -59.927139      -17.138186
 H         -19.682430      -57.408268      -16.085588
 C         -22.739174      -60.638729      -16.319820
 C         -23.959330      -61.480862      -16.712757
 C         -21.908628      -60.877983      -15.125898
 C         -23.644524      -62.984905      -16.597431
 C         -21.757463      -62.386810      -14.949507
 C         -23.028286      -63.302147      -15.240500
 H         -24.255835      -61.282627      -17.726320
 H         -24.693518      -61.192097      -16.006905
 H         -20.961781      -60.347721      -15.022908
 H         -22.498322      -60.490067      -14.291740
 H         -22.867920      -63.248981      -17.294907
 H         -24.592926      -63.509670      -16.707409
 H         -21.330782      -62.517097      -13.905360
 H         -20.832232      -62.764450      -15.442720
 H         -22.630842      -64.357407      -15.330226
 H         -23.694729      -63.318268      -14.404064
