20
 generated by VMD
 C         -33.689205      -96.262047      -25.253550
 N         -32.964176      -97.141090      -25.138062
 H         -34.881760      -93.473892      -27.394323
 H         -34.274277      -95.440720      -25.147358
 C         -34.877529      -93.452820      -28.498289
 C         -36.016415      -94.042175      -29.171741
 C         -33.553783      -93.349983      -29.203236
 C         -36.215946      -93.172409      -30.449310
 C         -33.702793      -92.581284      -30.502834
 C         -34.922020      -93.026947      -31.379652
 H         -36.885586      -94.024170      -28.423630
 H         -35.930996      -95.049103      -29.518169
 H         -32.842037      -92.764999      -28.525440
 H         -33.133305      -94.358788      -29.204147
 H         -36.420033      -92.094559      -30.132740
 H         -37.123848      -93.579460      -30.902670
 H         -32.829178      -92.737190      -31.220562
 H         -33.813236      -91.594376      -30.156263
 H         -35.282913      -92.343132      -32.167778
 H         -34.663792      -94.073914      -31.898735
