20
 generated by VMD
 C         -78.751724     -208.313293      -76.853966
 N         -78.990265     -208.310898      -75.706207
 H         -79.183311     -209.717926      -73.423744
 H         -78.311279     -208.204086      -77.907692
 C         -78.644516     -210.044708      -72.557343
 C         -77.297081     -209.515991      -72.119553
 C         -79.069168     -211.276917      -71.971664
 C         -77.052521     -209.649857      -70.531067
 C         -79.037773     -211.181030      -70.391495
 C         -77.541969     -210.973389      -69.847488
 H         -77.130142     -208.494080      -72.452713
 H         -76.502892     -210.020599      -72.603600
 H         -79.989830     -211.526230      -72.374176
 H         -78.353897     -211.999115      -72.397911
 H         -77.383522     -208.772110      -69.959579
 H         -75.957542     -209.548691      -70.380600
 H         -79.563324     -212.022278      -69.858925
 H         -79.558434     -210.175476      -70.142311
 H         -77.520584     -210.990891      -68.783325
 H         -77.052742     -211.858307      -70.261765
