20
 generated by VMD
 C         -20.134825      -57.326466      -16.769020
 N         -19.166521      -57.477566      -17.454313
 H         -22.392141      -59.613300      -17.232975
 H         -20.997774      -57.066662      -16.309011
 C         -22.501675      -60.488602      -16.659349
 C         -23.865095      -61.076878      -16.365284
 C         -21.180140      -60.775375      -16.022984
 C         -23.784651      -62.095245      -15.171648
 C         -21.254143      -62.236935      -15.479834
 C         -22.447290      -62.519531      -14.577829
 H         -24.248953      -61.492329      -17.293226
 H         -24.638922      -60.261349      -16.179642
 H         -20.400536      -60.795502      -16.760439
 H         -20.919594      -60.012962      -15.259834
 H         -24.232731      -62.972988      -15.596891
 H         -24.434944      -61.826004      -14.380810
 H         -20.308771      -62.361435      -15.015953
 H         -21.227808      -63.079781      -16.196852
 H         -22.461208      -63.559368      -14.334493
 H         -22.231092      -62.023518      -13.597462
