20
 generated by VMD
 C         -28.252125      -82.379959      -26.715269
 N         -27.418320      -83.103828      -27.035429
 H         -31.325937      -84.148613      -26.430492
 H         -28.950720      -81.732620      -26.385790
 C         -31.602793      -84.831978      -25.728872
 C         -31.048622      -84.642792      -24.352945
 C         -32.136211      -86.088570      -26.204529
 C         -32.117325      -85.116287      -23.359016
 C         -33.079266      -86.663315      -25.157394
 C         -32.482990      -86.649269      -23.741587
 H         -30.888964      -83.545692      -24.267221
 H         -30.125717      -85.130112      -24.356667
 H         -32.563366      -85.867828      -27.179031
 H         -31.445631      -86.903679      -26.496695
 H         -33.104366      -84.509041      -23.533390
 H         -31.779247      -85.055847      -22.333950
 H         -33.360809      -87.652794      -25.395947
 H         -34.050495      -86.084221      -25.169304
 H         -33.027767      -87.254440      -22.904400
 H         -31.461039      -87.197029      -23.855621
