20
 generated by VMD
 C         -30.296907      -75.126122      -21.036560
 N         -31.415167      -75.342575      -20.832964
 H         -27.863770      -74.640732      -19.699341
 H         -29.203203      -74.936905      -21.191126
 C         -27.023817      -74.711884      -20.415394
 C         -26.660980      -75.857468      -21.299702
 C         -26.036942      -73.545959      -20.449854
 C         -25.993589      -75.455589      -22.708603
 C         -25.342539      -73.240662      -21.769424
 C         -24.902105      -74.471886      -22.614790
 H         -27.522804      -76.455292      -21.549942
 H         -25.856907      -76.366516      -20.637617
 H         -26.535336      -72.551239      -20.066553
 H         -25.306511      -73.856911      -19.694525
 H         -26.730186      -74.973465      -23.358070
 H         -25.630928      -76.361557      -23.220148
 H         -24.428782      -72.592644      -21.573996
 H         -26.258698      -72.712982      -22.216547
 H         -24.569170      -74.184700      -23.631451
 H         -23.959389      -74.793434      -22.193693
