20
 generated by VMD
 C         -11.689613      -26.681665       -0.569012
 N         -12.620576      -26.360737       -1.074470
 H         -10.275102      -26.386679       -3.703089
 H          -9.402953      -25.537195       -5.025465
 C          -9.268535      -26.122078       -4.083246
 C          -8.488142      -27.389143       -4.283878
 C          -8.612409      -25.116013       -3.107078
 C          -7.020713      -27.217056       -4.378935
 C          -7.114874      -24.868603       -3.413679
 C          -6.361789      -26.174133       -3.461917
 H          -8.928939      -27.752922       -5.264201
 H          -8.665628      -28.000809       -3.425150
 H          -9.039073      -24.101156       -3.064140
 H          -8.621228      -25.628004       -2.149931
 H          -6.719253      -26.902779       -5.427768
 H          -6.482671      -28.185127       -4.142093
 H          -6.639578      -24.226955       -2.670335
 H          -7.145875      -24.294880       -4.359282
 H          -5.318619      -26.080805       -3.798820
 H          -6.317744      -26.631367       -2.499125
