20
 generated by VMD
 C         -49.588493     -133.143661      -46.772091
 N         -48.717007     -132.669174      -47.237408
 H         -48.051331     -134.369415      -44.011459
 H         -50.549305     -133.254395      -46.272732
 C         -49.016899     -134.807144      -43.889812
 C         -49.466167     -136.201508      -44.232357
 C         -50.076111     -133.930954      -43.314117
 C         -50.111908     -136.871841      -43.101822
 C         -50.785206     -134.643997      -42.085052
 C         -51.188370     -136.034775      -42.396618
 H         -48.554443     -136.692169      -44.574562
 H         -50.109226     -136.144455      -45.157745
 H         -49.598663     -133.029266      -42.931641
 H         -50.689003     -133.650040      -44.118046
 H         -49.386547     -137.189133      -42.342480
 H         -50.460785     -137.921844      -43.430195
 H         -51.716179     -134.153717      -41.742413
 H         -50.153637     -134.670425      -41.178310
 H         -51.404812     -136.605835      -41.412941
 H         -52.066303     -135.932144      -43.042915
