20
 generated by VMD
 C         -41.417629     -102.346649      -35.517616
 N         -41.524841     -103.439644      -35.897160
 H         -39.464397     -104.924232      -33.565567
 H         -41.201294     -101.328712      -35.232742
 C         -38.552429     -105.099258      -32.828751
 C         -37.259815     -104.428200      -32.870502
 C         -38.937725     -106.341049      -32.058781
 C         -36.473602     -104.680649      -31.649349
 C         -38.087864     -106.497749      -30.714211
 C         -36.550030     -106.118912      -31.033333
 H         -37.481285     -103.347458      -32.944618
 H         -36.832500     -104.713211      -33.865582
 H         -40.068970     -106.249825      -31.891323
 H         -38.849037     -107.112511      -32.775990
 H         -36.632256     -103.952782      -30.830753
 H         -35.445255     -104.474411      -31.989214
 H         -38.071198     -107.569885      -30.354317
 H         -38.516479     -105.891411      -29.831684
 H         -35.937218     -106.272713      -30.200342
 H         -36.197495     -106.925095      -31.750402
