20
 generated by VMD
 C         -66.845749     -177.871552      -57.037872
 N         -67.834007     -178.448135      -56.843372
 H         -64.128899     -176.013992      -59.154514
 H         -65.882034     -177.326630      -57.104347
 C         -64.247726     -175.028000      -59.578323
 C         -65.555725     -174.348892      -59.462570
 C         -63.115658     -174.592468      -60.496826
 C         -65.223831     -172.881973      -59.250908
 C         -62.953003     -173.020081      -60.389942
 C         -64.361427     -172.331024      -60.359592
 H         -65.980843     -174.681686      -58.575207
 H         -66.349739     -174.566132      -60.235466
 H         -62.262974     -175.152756      -60.175121
 H         -63.274994     -174.963074      -61.535397
 H         -64.858948     -172.562378      -58.240425
 H         -66.170540     -172.378143      -59.475060
 H         -62.378914     -172.460007      -61.252251
 H         -62.353943     -172.898575      -59.538841
 H         -64.249123     -171.215576      -60.210968
 H         -64.700920     -172.453018      -61.410675
