20
 generated by VMD
 C         -33.688869      -96.283531      -25.262848
 N         -32.922325      -97.135254      -25.087986
 H         -34.879776      -93.581421      -27.417564
 H         -34.363308      -95.338692      -25.212528
 C         -34.868057      -93.417847      -28.469625
 C         -36.023346      -93.991951      -29.184782
 C         -33.560219      -93.330307      -29.184355
 C         -36.211449      -93.197174      -30.417391
 C         -33.731812      -92.623238      -30.533678
 C         -34.927574      -93.006851      -31.381514
 H         -36.855000      -94.028435      -28.552462
 H         -35.785358      -95.036606      -29.505152
 H         -32.901222      -92.777275      -28.583380
 H         -33.168961      -94.345451      -29.361382
 H         -36.236851      -92.159950      -30.119547
 H         -37.116222      -93.462677      -30.974035
 H         -32.882092      -92.663940      -31.154367
 H         -33.798977      -91.516815      -30.263590
 H         -35.194218      -92.163193      -32.211769
 H         -34.661366      -93.872025      -31.904810
