20
 generated by VMD
 C         -12.763125      -28.056223       -5.768997
 N         -13.079766      -28.561558       -6.708018
 H         -12.001031      -31.756918       -4.843557
 H         -11.164922      -30.199535       -5.213956
 C         -11.074467      -31.185217       -4.736254
 C          -9.955479      -31.954697       -5.421453
 C         -10.770401      -30.944906       -3.218085
 C          -8.686507      -31.299990       -5.193954
 C          -9.338552      -30.389837       -2.964073
 C          -8.289739      -31.154142       -3.758357
 H         -10.377728      -31.971176       -6.478105
 H          -9.925368      -32.940975       -5.051926
 H         -11.495303      -30.266228       -2.769410
 H         -10.860060      -31.957619       -2.725982
 H          -8.596584      -30.354403       -5.702476
 H          -7.945737      -31.989523       -5.604987
 H          -9.020700      -30.572012       -1.913236
 H          -9.301723      -29.306492       -3.120523
 H          -7.387048      -30.601444       -3.702967
 H          -8.166183      -32.176868       -3.348789
