20
 generated by VMD
 C         -49.266228     -126.917862      -39.958321
 N         -50.011585     -127.165916      -39.102798
 H         -46.414501     -127.202072      -42.612049
 H         -48.625389     -126.734169      -40.798218
 C         -46.270058     -126.394257      -41.847885
 C         -45.254791     -126.806778      -40.799156
 C         -46.690292     -125.025536      -41.755268
 C         -44.206226     -125.837830      -40.375332
 C         -45.665581     -123.887650      -41.448715
 C         -44.703266     -124.350906      -40.248024
 H         -44.701008     -127.683563      -41.117558
 H         -45.920715     -126.990173      -40.030224
 H         -47.085381     -124.712929      -42.682201
 H         -47.401920     -124.951248      -40.822289
 H         -43.453468     -125.745598      -41.196579
 H         -43.724499     -126.244507      -39.444244
 H         -46.130756     -122.972816      -41.086525
 H         -44.951614     -123.631813      -42.266708
 H         -43.915558     -123.679039      -40.020180
 H         -45.259563     -124.428802      -39.276962
