20
 generated by VMD
 C         -38.458721     -115.245934      -35.453842
 N         -39.256069     -115.310020      -34.589249
 H         -41.463524     -115.524628      -36.932251
 H         -37.691525     -115.272552      -36.272842
 C         -42.463268     -115.550789      -37.159729
 C         -42.890678     -115.358826      -38.531548
 C         -43.494705     -115.276924      -36.033344
 C         -44.212948     -116.083473      -38.798546
 C         -44.741642     -116.104668      -36.314884
 C         -45.205475     -115.797012      -37.703281
 H         -42.157963     -115.847870      -39.140537
 H         -43.065090     -114.356400      -38.838055
 H         -42.940773     -115.657303      -35.220562
 H         -43.708969     -114.214279      -36.068825
 H         -44.097416     -117.214005      -38.838585
 H         -44.532566     -115.800476      -39.798092
 H         -45.547485     -115.754585      -35.606480
 H         -44.421314     -117.122604      -36.063873
 H         -46.259766     -116.187965      -37.811623
 H         -45.448101     -114.748360      -37.843224
