20
 generated by VMD
 C         -11.937112      -25.585775       -0.776067
 N         -12.517028      -25.566172        0.180777
 H          -8.477632      -26.626419       -1.801452
 H          -9.288658      -25.910864       -3.145850
 C          -8.290826      -26.036915       -2.685683
 C          -7.424098      -26.839237       -3.612276
 C          -7.661654      -24.752981       -2.275354
 C          -7.105857      -26.016041       -4.819232
 C          -7.380593      -23.913713       -3.518972
 C          -6.457077      -24.674843       -4.488479
 H          -7.931127      -27.727385       -3.812400
 H          -6.483667      -27.014826       -3.115707
 H          -8.339250      -24.163801       -1.676118
 H          -6.730729      -24.860743       -1.682365
 H          -8.024849      -25.823980       -5.370534
 H          -6.358789      -26.499441       -5.458577
 H          -6.910392      -22.975630       -3.176078
 H          -8.323023      -23.679255       -4.026577
 H          -6.409983      -24.044970       -5.382517
 H          -5.445081      -24.894173       -4.054821
