20
 generated by VMD
 C         -40.514629     -117.068245      -34.496563
 N         -39.485191     -116.551888      -34.693199
 H         -41.457973     -116.520714      -37.823502
 H         -41.582455     -117.362419      -34.366268
 C         -42.543659     -116.396271      -37.885235
 C         -43.204861     -116.026665      -39.218334
 C         -43.466057     -116.113663      -36.746170
 C         -44.383125     -116.954750      -39.378342
 C         -44.744392     -116.828667      -36.832394
 C         -45.309368     -116.625031      -38.265938
 H         -42.398216     -116.224045      -39.960468
 H         -43.516232     -114.971268      -39.360600
 H         -42.852520     -116.558311      -35.888046
 H         -43.592464     -115.015442      -36.677238
 H         -44.179722     -117.982613      -39.441765
 H         -44.773491     -116.707748      -40.368759
 H         -45.471336     -116.487579      -36.002243
 H         -44.483566     -118.025192      -36.784943
 H         -46.270836     -117.231125      -38.512794
 H         -45.779778     -115.541748      -38.436642
