20
 generated by VMD
 C         -69.762642     -183.240128      -65.460365
 N         -70.364700     -182.397842      -66.008148
 H         -67.241859     -184.477570      -63.044846
 H         -69.179642     -183.980728      -64.880623
 C         -67.496986     -183.820251      -62.205318
 C         -67.916702     -184.290726      -60.781040
 C         -67.721146     -182.379852      -62.465416
 C         -67.176834     -183.371460      -59.756649
 C         -66.922897     -181.507050      -61.517982
 C         -67.214554     -181.864258      -60.040874
 H         -67.546295     -185.244995      -60.510830
 H         -68.929886     -184.063934      -60.624542
 H         -67.344444     -182.117081      -63.464233
 H         -68.816917     -182.386551      -62.598064
 H         -66.097229     -183.709503      -59.932667
 H         -67.478722     -183.666245      -58.641117
 H         -67.000305     -180.391464      -61.586609
 H         -65.855087     -181.676514      -61.798206
 H         -66.334457     -181.428345      -59.571682
 H         -68.142273     -181.408997      -59.701038
