20
 generated by VMD
 C         -79.370049     -205.478394      -70.916969
 N         -80.386864     -205.884766      -71.279396
 H         -77.027443     -203.170258      -71.152832
 H         -78.442665     -205.111725      -70.431076
 C         -76.205658     -203.276596      -70.390686
 C         -75.284798     -202.055969      -70.122757
 C         -75.785606     -204.565842      -69.748383
 C         -73.920563     -202.473160      -70.577080
 C         -74.390633     -204.545135      -69.042862
 C         -73.309685     -203.666519      -69.813797
 H         -75.152390     -201.850967      -69.091446
 H         -75.710938     -201.165192      -70.669762
 H         -76.593147     -204.868393      -69.070961
 H         -75.627419     -205.182404      -70.594330
 H         -73.215034     -201.635406      -70.567230
 H         -74.018639     -202.683090      -71.691444
 H         -74.011749     -205.600967      -68.941132
 H         -74.572380     -204.165771      -68.008881
 H         -72.464943     -203.319275      -69.041801
 H         -72.914764     -204.413422      -70.518921
