20
 generated by VMD
 C         -31.083771      -74.893600      -21.690477
 N         -31.596750      -75.940071      -21.781898
 H         -28.631760      -76.212029      -20.952332
 H         -30.490318      -74.118202      -21.986876
 C         -27.581018      -76.169090      -21.143084
 C         -26.770645      -77.146629      -21.972063
 C         -26.903633      -74.903954      -20.643835
 C         -25.706345      -76.522820      -22.888939
 C         -25.920343      -74.345261      -21.669050
 C         -24.925941      -75.320885      -22.189932
 H         -27.598976      -77.738991      -22.433229
 H         -26.287737      -77.844810      -21.271980
 H         -27.627996      -74.233017      -20.387154
 H         -26.402655      -75.120575      -19.746094
 H         -26.117676      -76.038147      -23.772078
 H         -25.065800      -77.329544      -23.280693
 H         -25.331837      -73.595993      -21.099762
 H         -26.410170      -73.722328      -22.437168
 H         -24.480946      -74.802017      -23.041573
 H         -24.195581      -75.596535      -21.421547
