20
 generated by VMD
 C         -50.422127     -129.488785      -43.489368
 N         -50.839493     -129.661438      -44.579506
 H         -49.059673     -127.764366      -40.537155
 H         -49.823135     -129.257278      -42.627163
 C         -47.995285     -128.123749      -40.684902
 C         -47.564129     -129.583160      -40.636593
 C         -46.918922     -127.059975      -40.682961
 C         -46.366199     -129.832748      -41.502041
 C         -45.706551     -127.426590      -41.592098
 C         -45.265064     -128.772751      -41.436089
 H         -48.377487     -130.203293      -40.905506
 H         -47.298119     -129.982147      -39.581203
 H         -47.312649     -125.999527      -41.095642
 H         -46.540424     -126.945656      -39.666222
 H         -46.489437     -130.152069      -42.495739
 H         -45.869480     -130.785095      -41.166370
 H         -44.996384     -126.635796      -41.381180
 H         -45.888920     -127.201965      -42.640327
 H         -44.461021     -129.116257      -42.128639
 H         -44.806606     -128.844696      -40.457935
