20
 generated by VMD
 C          -1.480841      -10.477504        1.034357
 N          -0.784128      -11.170483        1.582270
 H          -4.010685      -12.931729        0.059926
 H          -5.281868      -12.780697        1.215133
 C          -4.546922      -13.476238        0.863337
 C          -3.718134      -13.902322        2.088401
 C          -5.397933      -14.568958        0.305371
 C          -4.627460      -14.509295        3.154078
 C          -6.292892      -15.154151        1.448541
 C          -5.500080      -15.635977        2.670663
 H          -3.084859      -13.063813        2.360499
 H          -3.067307      -14.712831        1.642256
 H          -6.036942      -14.272258       -0.531903
 H          -4.856309      -15.410506       -0.123994
 H          -5.142804      -13.638763        3.633246
 H          -3.944147      -14.865196        3.923901
 H          -6.915383      -15.926929        1.020124
 H          -7.045605      -14.376495        1.712842
 H          -6.207022      -15.926379        3.460221
 H          -4.933660      -16.531111        2.436156
