20
 generated by VMD
 C         -47.336349     -138.900497      -45.682049
 N         -46.874859     -138.553879      -46.642605
 H         -50.617580     -138.286484      -44.856735
 H         -47.758442     -139.467987      -44.882145
 C         -51.563824     -138.776917      -45.058365
 C         -51.790478     -139.071976      -46.561241
 C         -52.902054     -138.433121      -44.360085
 C         -52.988255     -140.186935      -46.757149
 C         -54.096909     -139.372360      -44.619640
 C         -54.291958     -139.699539      -46.163673
 H         -50.821011     -139.493729      -46.896244
 H         -52.095432     -138.199219      -47.104809
 H         -52.731869     -138.466293      -43.214001
 H         -53.182663     -137.345184      -44.672073
 H         -52.752625     -141.145721      -46.289452
 H         -53.039009     -140.297592      -47.801449
 H         -54.927315     -138.880875      -44.188866
 H         -53.869957     -140.402512      -44.165916
 H         -55.076321     -140.466858      -46.322758
 H         -54.494892     -138.649017      -46.758591
