20
 generated by VMD
 C         -10.702806      -33.587540       -8.725449
 N         -11.065945      -32.762295       -9.346916
 H         -11.927809      -36.948509       -8.250008
 H         -11.993899      -36.055866       -6.739154
 C         -12.363775      -36.948853       -7.252753
 C         -11.935508      -38.185421       -6.469064
 C         -13.867985      -36.941120       -7.533924
 C         -12.869299      -38.486267       -5.241253
 C         -14.729448      -37.177906       -6.291089
 C         -14.343169      -38.478733       -5.527540
 H         -10.946146      -37.995983       -6.043433
 H         -11.955785      -39.091038       -7.124989
 H         -14.054129      -35.938278       -7.934084
 H         -14.015573      -37.671631       -8.311730
 H         -12.596573      -37.705299       -4.493876
 H         -12.712593      -39.509819       -4.815749
 H         -15.800668      -37.342720       -6.611530
 H         -14.796814      -36.370274       -5.598628
 H         -14.998541      -38.605717       -4.680846
 H         -14.542621      -39.367462       -6.201575
