20
 generated by VMD
 C          -3.743896      -18.757833        2.188960
 N          -3.216368      -18.301615        3.063475
 H          -5.555610      -20.488358        0.296206
 H          -6.322989      -21.326582       -1.129693
 C          -6.200216      -20.357632       -0.576079
 C          -5.562389      -19.213593       -1.408954
 C          -7.606617      -19.945345       -0.133177
 C          -6.416774      -18.746805       -2.574417
 C          -8.386948      -19.428579       -1.323648
 C          -7.815609      -18.351185       -2.181726
 H          -4.563267      -19.568981       -1.838980
 H          -5.315622      -18.416914       -0.688370
 H          -8.084940      -20.751310        0.265895
 H          -7.600080      -19.207951        0.594508
 H          -6.541191      -19.592930       -3.245173
 H          -5.944425      -17.930283       -3.022642
 H          -9.288542      -19.003410       -0.895248
 H          -8.692863      -20.229822       -1.967531
 H          -8.420171      -18.216143       -3.097200
 H          -7.838900      -17.355516       -1.702100
