20
 generated by VMD
 C         -11.587128      -39.524158       -7.051818
 N         -10.881218      -39.774311       -6.235989
 H         -13.295294      -40.655262       -9.089706
 H         -14.741375      -39.863300       -9.196507
 C         -14.320538      -40.878242       -9.230109
 C         -14.854989      -41.678257       -8.044250
 C         -14.647456      -41.537350      -10.517190
 C         -16.354122      -41.941879       -8.258651
 C         -16.122845      -41.518860      -10.710727
 C         -16.756323      -42.386627       -9.625643
 H         -14.676064      -41.202625       -7.110952
 H         -14.258634      -42.559452       -8.028181
 H         -14.143993      -40.939747      -11.266581
 H         -14.271868      -42.574471      -10.538127
 H         -16.871328      -40.998734       -8.038390
 H         -16.723436      -42.628174       -7.546184
 H         -16.472013      -41.963745      -11.651384
 H         -16.567188      -40.533867      -10.640691
 H         -17.851534      -42.282719       -9.750886
 H         -16.433641      -43.420368       -9.831250
