20
 generated by VMD
 C         -79.512497     -207.068436      -75.810387
 N         -80.208679     -207.138351      -74.923286
 H         -77.381477     -207.996017      -73.031456
 H         -79.015343     -206.872803      -76.742577
 C         -77.034943     -208.597427      -72.233299
 C         -75.826767     -208.359650      -71.395515
 C         -77.965767     -209.656998      -71.621887
 C         -76.172401     -207.806244      -70.036812
 C         -78.154350     -209.478424      -70.116402
 C         -76.911674     -209.029709      -69.311180
 H         -75.294388     -207.575851      -71.940849
 H         -75.097916     -209.132507      -71.159966
 H         -78.735245     -209.799774      -72.375740
 H         -77.317825     -210.531296      -71.682381
 H         -76.890663     -206.967209      -70.045609
 H         -75.336060     -207.528809      -69.374687
 H         -78.471016     -210.494293      -69.631874
 H         -78.991478     -208.835129      -69.928947
 H         -77.272957     -208.590195      -68.382973
 H         -76.359879     -209.966293      -69.115852
