20
 generated by VMD
 C         -50.155125     -131.942459      -46.812366
 N         -49.969452     -132.512772      -47.763592
 H         -47.999191     -132.162994      -43.938843
 H         -50.247036     -131.790054      -45.790493
 C         -48.657963     -132.633362      -43.252502
 C         -49.515430     -133.792862      -43.811653
 C         -48.833656     -132.324341      -41.781670
 C         -49.387737     -135.063522      -42.924053
 C         -48.648632     -133.576950      -40.942326
 C         -49.485302     -134.703735      -41.353146
 H         -49.316063     -133.876053      -44.843281
 H         -50.536140     -133.269836      -43.769596
 H         -48.051628     -131.660156      -41.477093
 H         -49.841061     -131.951721      -41.631123
 H         -48.516434     -135.610870      -43.265541
 H         -50.170441     -135.769974      -43.215611
 H         -48.945522     -133.247894      -39.902626
 H         -47.558666     -133.941086      -40.820137
 H         -49.095619     -135.708649      -40.971607
 H         -50.527370     -134.527252      -41.232613
