20
 generated by VMD
 C         -20.931007      -52.275871       -9.588061
 N         -21.294085      -52.267139      -10.715240
 H         -19.382666      -49.864655      -11.960398
 H         -20.407356      -52.293697       -8.647803
 C         -18.342953      -49.955143      -12.137020
 C         -17.768259      -51.283310      -12.502419
 C         -17.234177      -48.924068      -12.204080
 C         -16.755114      -51.344280      -13.731030
 C         -16.578932      -48.813164      -13.552563
 C         -15.841530      -50.090149      -13.827666
 H         -18.663477      -51.830837      -12.775029
 H         -17.250961      -51.748123      -11.598857
 H         -17.595568      -47.911610      -11.949151
 H         -16.462189      -49.125549      -11.431341
 H         -17.362127      -51.564209      -14.613471
 H         -16.126272      -52.223476      -13.649877
 H         -16.034456      -47.825775      -13.630407
 H         -17.401604      -48.727642      -14.301014
 H         -15.413672      -50.102478      -14.798627
 H         -15.027188      -50.189125      -13.151603
