20
 generated by VMD
 C         -68.511292     -185.390182      -66.749794
 N         -67.775620     -186.245605      -67.041977
 H         -69.771523     -184.088364      -64.111099
 H         -69.241264     -184.642426      -66.511322
 C         -69.568550     -184.755890      -63.329327
 C         -70.790390     -185.126831      -62.541584
 C         -68.243141     -185.443802      -63.104015
 C         -70.424820     -185.511856      -61.093182
 C         -68.134933     -186.212173      -61.804577
 C         -69.367195     -186.616104      -61.085648
 H         -71.443596     -185.859863      -63.034714
 H         -71.506897     -184.351471      -62.405064
 H         -68.338181     -186.101517      -64.057617
 H         -67.392944     -184.794220      -63.252899
 H         -71.269325     -185.802170      -60.455032
 H         -70.034691     -184.652496      -60.656612
 H         -67.431290     -185.669891      -61.158424
 H         -67.676888     -187.197220      -61.980793
 H         -69.897423     -187.478989      -61.592751
 H         -69.341728     -187.011185      -59.963871
