20
 generated by VMD
 C         -29.657644      -79.898994      -26.415340
 N         -29.633812      -80.119484      -27.568388
 H         -28.348211      -82.560616      -24.883093
 H         -29.468975      -79.808807      -25.281593
 C         -29.202911      -83.002182      -24.268900
 C         -29.175655      -82.601799      -22.869177
 C         -30.035835      -84.101158      -24.913754
 C         -30.659472      -82.647308      -22.375364
 C         -31.425377      -84.233017      -24.227444
 C         -31.314306      -84.011490      -22.618002
 H         -28.793625      -81.569870      -22.611706
 H         -28.702482      -83.361946      -22.289057
 H         -30.057693      -83.865868      -25.972429
 H         -29.440914      -85.031754      -24.902878
 H         -31.296778      -81.853600      -22.770884
 H         -30.669434      -82.443283      -21.259119
 H         -31.913315      -85.171234      -24.506491
 H         -32.101112      -83.447510      -24.707529
 H         -32.387711      -83.990204      -22.444538
 H         -30.869844      -84.848709      -22.136278
