20
 generated by VMD
 C         -27.891016      -82.756241      -27.279057
 N         -27.180721      -83.407486      -26.647163
 H         -31.358433      -84.264145      -26.555296
 H         -28.511419      -82.225243      -28.017216
 C         -31.846588      -84.934891      -25.777496
 C         -31.423042      -84.966423      -24.415024
 C         -32.287437      -86.230293      -26.334913
 C         -32.502510      -85.628304      -23.473507
 C         -33.175327      -87.104858      -25.392092
 C         -32.815289      -87.066910      -23.917376
 H         -31.459705      -83.940247      -24.032236
 H         -30.373177      -85.338142      -24.356592
 H         -32.795235      -85.933128      -27.251530
 H         -31.416817      -86.803581      -26.745281
 H         -33.409744      -84.912033      -23.618412
 H         -32.270786      -85.679001      -22.419792
 H         -33.251534      -88.099625      -25.737411
 H         -34.153137      -86.678146      -25.553259
 H         -33.526299      -87.613876      -23.271223
 H         -31.895456      -87.746231      -23.882814
