20
 generated by VMD
 C         -29.621964      -88.378044      -25.866858
 N         -29.299809      -89.019501      -24.992167
 H         -31.304752      -90.025246      -27.726240
 H         -29.749729      -87.764153      -26.783310
 C         -32.371830      -89.775330      -27.469856
 C         -33.011490      -89.886131      -26.110611
 C         -33.262772      -89.444283      -28.598879
 C         -33.780460      -88.702438      -25.821480
 C         -34.057297      -88.128403      -28.333261
 C         -34.744610      -88.324799      -26.945591
 H         -32.305248      -90.057213      -25.256384
 H         -33.689087      -90.746994      -26.159113
 H         -32.799175      -89.389618      -29.613642
 H         -34.102627      -90.148651      -28.704018
 H         -33.134563      -87.853096      -25.732334
 H         -34.378109      -88.687027      -24.886896
 H         -34.744415      -87.776138      -29.096849
 H         -33.209526      -87.393135      -28.263395
 H         -35.304981      -87.470390      -26.758286
 H         -35.499733      -89.054733      -27.101484
