20
 generated by VMD
 C         -79.099274     -208.218216      -75.475388
 N         -78.355995     -207.277451      -75.569572
 H         -79.012978     -209.965256      -73.467613
 H         -79.769562     -208.994064      -75.295128
 C         -78.505646     -210.070892      -72.552231
 C         -77.322884     -209.263824      -72.352554
 C         -78.866386     -211.033493      -71.503288
 C         -77.091537     -208.737701      -70.932655
 C         -78.437576     -210.752243      -70.027596
 C         -77.126930     -209.915421      -70.057053
 H         -77.400070     -208.371048      -73.013306
 H         -76.414062     -209.703430      -72.852272
 H         -79.938042     -211.132858      -71.463539
 H         -78.408073     -211.944336      -71.961533
 H         -77.838104     -207.945023      -70.600685
 H         -76.153473     -208.151230      -71.019798
 H         -78.590767     -211.711929      -69.430954
 H         -79.201668     -210.125748      -69.545982
 H         -76.899460     -209.772049      -69.026619
 H         -76.265160     -210.468384      -70.448013
