20
 generated by VMD
 C         -40.478477     -117.385315      -34.551010
 N         -39.469536     -116.982239      -34.914845
 H         -41.749298     -116.398132      -37.231285
 H         -41.254990     -118.076302      -34.112373
 C         -42.800224     -116.449486      -37.631195
 C         -42.950779     -116.507736      -39.140060
 C         -43.923477     -116.252342      -36.655666
 C         -44.184250     -117.244247      -39.532104
 C         -45.224472     -116.948357      -37.130733
 C         -45.353603     -116.642212      -38.717270
 H         -42.028721     -116.977608      -39.550224
 H         -43.020206     -115.438972      -39.491882
 H         -43.752953     -116.760002      -35.739403
 H         -44.012718     -115.093468      -36.597385
 H         -43.944122     -118.244583      -39.228291
 H         -44.348866     -117.321770      -40.597416
 H         -46.198505     -116.693787      -36.771690
 H         -45.132778     -118.091476      -36.966152
 H         -46.415276     -117.147079      -39.043056
 H         -45.624355     -115.540817      -38.663383
