20
 generated by VMD
 C         -59.934109     -152.120590      -50.157543
 N         -58.842880     -152.639862      -50.116589
 H         -56.751919     -150.987000      -48.789043
 H         -60.867405     -151.599686      -50.121273
 C         -55.725578     -150.710190      -48.960968
 C         -54.792328     -151.739166      -49.731228
 C         -55.360706     -149.241989      -49.194191
 C         -54.366844     -151.278549      -51.091740
 C         -54.877552     -148.795670      -50.665493
 C         -53.778152     -149.927567      -51.071991
 H         -55.196957     -152.749390      -49.828274
 H         -53.941380     -151.786087      -49.061340
 H         -56.078297     -148.505325      -48.784691
 H         -54.478485     -149.029816      -48.581406
 H         -55.305508     -151.215622      -51.651787
 H         -53.710629     -152.013519      -51.593681
 H         -54.242180     -147.810028      -50.593575
 H         -55.596416     -148.728683      -51.383980
 H         -53.345299     -149.705200      -52.044731
 H         -52.930851     -149.852570      -50.387264
