20
 generated by VMD
 C         -11.833791      -26.416569       -0.260830
 N         -12.762991      -26.304642       -0.890673
 H         -10.132883      -26.470407       -3.648080
 H          -9.340138      -25.631910       -5.021348
 C          -9.195574      -26.102871       -4.049428
 C          -8.284014      -27.361561       -4.120490
 C          -8.549541      -25.144634       -3.084276
 C          -6.871625      -26.953505       -4.634522
 C          -7.131853      -24.746914       -3.454774
 C          -6.251121      -26.023663       -3.531025
 H          -8.826651      -28.023449       -4.797460
 H          -8.247396      -27.963703       -3.166024
 H          -9.066232      -24.161081       -3.114336
 H          -8.629651      -25.516996       -2.067431
 H          -6.880969      -26.467846       -5.602032
 H          -6.212928      -27.779144       -4.826695
 H          -6.698009      -24.182863       -2.611152
 H          -7.105477      -24.035479       -4.272093
 H          -5.233580      -25.802662       -3.891585
 H          -6.035704      -26.608358       -2.610447
