20
 generated by VMD
 C         -69.495888     -196.060959      -65.076408
 N         -68.585205     -196.710037      -65.306732
 H         -71.841545     -194.226196      -65.343658
 H         -70.557770     -195.747940      -64.871674
 C         -72.162605     -193.922546      -66.338837
 C         -72.206215     -192.465393      -66.586006
 C         -72.990532     -194.750504      -67.265121
 C         -73.635818     -191.969040      -66.599335
 C         -74.415558     -194.302094      -67.266350
 C         -74.609634     -192.853287      -67.440895
 H         -71.921295     -192.445480      -67.692795
 H         -71.713943     -191.938293      -65.790787
 H         -72.675095     -194.560669      -68.259193
 H         -72.864212     -195.728577      -66.920387
 H         -73.685974     -190.955963      -67.087944
 H         -73.947212     -191.890182      -65.508102
 H         -74.894783     -194.604385      -66.318901
 H         -74.913261     -194.876495      -68.043556
 H         -74.415581     -192.501801      -68.522263
 H         -75.600266     -192.495224      -67.089432
