20
 generated by VMD
 C         -69.251259     -185.030380      -66.607864
 N         -69.314346     -185.176132      -67.773247
 H         -69.638672     -183.084152      -63.179829
 H         -69.043953     -184.892944      -65.521515
 C         -69.290428     -183.262070      -62.157284
 C         -69.754143     -184.530334      -61.479710
 C         -68.087936     -182.439774      -61.670448
 C         -68.635712     -185.500488      -61.101147
 C         -66.980072     -183.437500      -61.259033
 C         -67.471825     -184.726212      -60.505295
 H         -70.468681     -185.003174      -62.154884
 H         -70.379654     -184.120087      -60.640644
 H         -67.595367     -181.755219      -62.394871
 H         -68.453140     -181.955566      -60.842590
 H         -68.438980     -186.117233      -62.047104
 H         -69.111923     -186.163315      -60.324291
 H         -66.381569     -182.955048      -60.493599
 H         -66.406639     -183.761246      -62.153336
 H         -66.631363     -185.316513      -60.463207
 H         -67.677620     -184.416641      -59.473442
