20
 generated by VMD
 C         -27.481438      -86.549500      -26.393265
 N         -28.482454      -86.324409      -26.872120
 H         -31.004768      -86.394371      -25.161102
 H         -26.508320      -86.933113      -25.920601
 C         -31.970139      -86.705681      -25.570210
 C         -32.797829      -87.348228      -24.525501
 C         -32.021622      -87.307426      -26.897064
 C         -34.188763      -87.399788      -25.011333
 C         -33.566002      -87.522911      -27.413944
 C         -34.403080      -88.270233      -26.289942
 H         -32.516209      -86.807556      -23.600061
 H         -32.512981      -88.347557      -24.375118
 H         -31.423552      -86.664200      -27.626114
 H         -31.490973      -88.258255      -26.884443
 H         -34.549633      -86.374748      -25.311075
 H         -34.837456      -87.946533      -24.263205
 H         -33.535294      -87.990311      -28.354458
 H         -33.976093      -86.463623      -27.476765
 H         -35.474403      -88.370468      -26.529737
 H         -34.084728      -89.330704      -26.119267
