20
 generated by VMD
 C         -20.506821      -61.677925      -17.331728
 N         -19.465235      -61.224709      -17.031506
 H         -21.733919      -64.903687      -16.754930
 H         -21.523924      -61.820045      -17.818815
 C         -22.760992      -65.104813      -17.014339
 C         -23.083254      -64.250633      -18.240580
 C         -23.796371      -65.291451      -15.992152
 C         -24.384062      -64.689522      -18.804241
 C         -25.220209      -65.464813      -16.681322
 C         -25.546719      -64.523399      -17.834675
 H         -22.351957      -64.485184      -18.998571
 H         -23.134184      -63.249371      -17.972992
 H         -23.787861      -66.276802      -15.517797
 H         -23.719671      -64.691513      -15.147826
 H         -24.358778      -65.655891      -19.238340
 H         -24.685368      -64.130646      -19.704023
 H         -25.934921      -65.322495      -15.863338
 H         -25.351534      -66.485931      -17.042315
 H         -26.599295      -64.648125      -18.182146
 H         -25.586506      -63.520996      -17.476522
