20
 generated by VMD
 C         -63.666744     -174.783203      -56.129894
 N         -62.677937     -175.328369      -56.419937
 H         -66.405716     -173.386902      -58.435005
 H         -64.643944     -174.374680      -55.864716
 C         -65.603180     -172.625351      -58.777496
 C         -65.725929     -171.168579      -58.493023
 C         -64.598846     -173.103958      -59.779503
 C         -64.372017     -170.638397      -58.075981
 C         -63.260731     -172.278854      -59.727028
 C         -63.356312     -170.735550      -59.363506
 H         -66.280098     -171.001816      -57.637558
 H         -66.211182     -170.560364      -59.415707
 H         -64.406418     -174.181015      -59.519711
 H         -65.090286     -172.851929      -60.706512
 H         -63.924931     -171.291458      -57.285522
 H         -64.406738     -169.632507      -57.645103
 H         -62.546490     -172.477249      -60.545292
 H         -62.645245     -172.697433      -58.884464
 H         -62.421501     -170.194046      -59.198112
 H         -63.926563     -170.126907      -60.149452
