20
 generated by VMD
 C          -9.783587      -24.771008        0.550540
 N         -10.497014      -25.238083       -0.158494
 H          -6.342874      -24.210510       -0.822885
 H          -8.053736      -23.782190       -1.039892
 C          -7.085862      -23.991148       -1.608538
 C          -7.162611      -25.289879       -2.525480
 C          -6.690516      -22.752123       -2.352570
 C          -8.068195      -24.902821       -3.756285
 C          -7.594482      -22.406822       -3.572515
 C          -7.670048      -23.607540       -4.492211
 H          -7.539579      -26.249376       -2.007660
 H          -6.154960      -25.628931       -2.758482
 H          -6.728588      -21.913280       -1.636903
 H          -5.666931      -22.703465       -2.699864
 H          -9.170608      -24.900373       -3.510561
 H          -8.112840      -25.680866       -4.580847
 H          -7.188290      -21.521700       -4.085989
 H          -8.600953      -22.123018       -3.189426
 H          -8.536271      -23.421614       -5.107936
 H          -6.778013      -23.710957       -5.095848
