20
 generated by VMD
 C         -77.306091     -203.535965      -67.218239
 N         -77.976501     -204.370041      -66.827492
 H         -75.662315     -200.886490      -68.319435
 H         -76.604149     -202.704224      -67.437172
 C         -74.808807     -200.377579      -68.828888
 C         -74.711212     -198.900864      -68.630791
 C         -73.800316     -201.086182      -69.564171
 C         -73.619614     -198.201630      -69.425407
 C         -72.812996     -200.209778      -70.351570
 C         -73.394844     -198.765289      -70.729897
 H         -74.682610     -198.481552      -67.640587
 H         -75.714600     -198.524521      -69.090576
 H         -73.228386     -201.858627      -68.929710
 H         -74.339050     -201.647064      -70.357895
 H         -72.731873     -198.107147      -68.818886
 H         -74.017914     -197.242172      -69.620262
 H         -72.532707     -200.616104      -71.339043
 H         -71.944077     -200.009140      -69.747780
 H         -72.696434     -198.221725      -71.268959
 H         -74.371124     -199.049408      -71.245972
