20
 generated by VMD
 C         -40.083939     -105.118637      -37.085266
 N         -39.734421     -104.028252      -37.034775
 H         -40.094822     -108.149048      -35.166515
 H         -40.466530     -106.134071      -36.871906
 C         -39.639534     -108.694733      -34.324253
 C         -38.497570     -108.110313      -33.566795
 C         -40.305737     -109.753975      -33.669239
 C         -38.947517     -107.704147      -32.166897
 C         -40.663372     -109.519363      -32.154087
 C         -39.471638     -109.008781      -31.392462
 H         -38.132504     -107.268799      -34.155720
 H         -37.641857     -108.839630      -33.482174
 H         -41.236874     -109.996368      -34.212654
 H         -39.662102     -110.716125      -33.638809
 H         -39.702904     -106.824211      -32.292660
 H         -38.026741     -107.334709      -31.695621
 H         -40.900898     -110.494164      -31.797871
 H         -41.557404     -108.979279      -32.054436
 H         -39.776394     -108.814507      -30.410295
 H         -38.654926     -109.918083      -31.317749
