20
 generated by VMD
 C          -3.453902      -17.374819        2.254618
 N          -3.215000      -18.407961        1.914653
 H          -5.542065      -20.251087        0.598611
 H          -5.971871      -20.777588       -0.961722
 C          -6.086260      -19.949183       -0.285792
 C          -5.378214      -18.754795       -0.808771
 C          -7.548162      -19.820425        0.008352
 C          -6.189058      -18.184544       -1.996231
 C          -8.315104      -19.450720       -1.227597
 C          -7.673985      -18.137735       -1.744163
 H          -4.391907      -19.081236       -1.034210
 H          -5.366769      -17.922184       -0.028336
 H          -7.877126      -20.780252        0.289439
 H          -7.612452      -19.042206        0.713499
 H          -6.026036      -18.893047       -2.801688
 H          -5.847127      -17.157400       -2.212384
 H          -9.370961      -19.245947       -1.008574
 H          -8.230559      -20.291594       -1.983426
 H          -8.247509      -17.758577       -2.601954
 H          -7.826233      -17.438387       -0.937967
