20
 generated by VMD
 C         -40.460178     -104.398674      -36.266525
 N         -39.561333     -104.933052      -36.744404
 H         -40.616856     -107.324509      -34.623711
 H         -41.388420     -104.011131      -35.915524
 C         -39.830475     -107.712761      -33.994644
 C         -38.731224     -106.784569      -33.540199
 C         -39.951866     -109.148247      -33.540157
 C         -38.537746     -106.941010      -32.050224
 C         -39.936947     -109.156113      -32.051640
 C         -38.667435     -108.457764      -31.490936
 H         -39.071903     -105.726952      -33.717350
 H         -37.754906     -106.786972      -34.111519
 H         -40.985332     -109.610405      -33.635048
 H         -39.230610     -109.914474      -33.947765
 H         -39.270634     -106.337074      -31.538883
 H         -37.506069     -106.612068      -31.814243
 H         -40.011074     -110.301605      -31.731810
 H         -40.788483     -108.711082      -31.510649
 H         -38.468563     -108.460762      -30.398624
 H         -37.753971     -108.989868      -31.975538
