20
 generated by VMD
 C         -40.108391     -100.765671      -31.778704
 N         -40.841698     -100.228416      -31.023300
 H         -37.527287     -103.350540      -32.349117
 H         -39.435658     -101.143448      -32.570663
 C         -36.958157     -102.651360      -31.801264
 C         -35.787628     -102.285202      -32.600403
 C         -36.747097     -102.257217      -30.351461
 C         -35.692410     -100.751785      -32.599239
 C         -36.326324     -100.792015      -30.079292
 C         -35.438847     -100.301888      -31.189663
 H         -35.944359     -102.679153      -33.611031
 H         -34.906197     -102.739128      -32.209053
 H         -37.594002     -102.448257      -29.745466
 H         -36.004517     -102.957886      -29.940001
 H         -36.604198     -100.343170      -33.044403
 H         -34.927273     -100.539391      -33.286613
 H         -35.813698     -100.738434      -29.070478
 H         -37.268116     -100.204689      -30.011890
 H         -35.544872      -99.200424      -31.042210
 H         -34.418194     -100.609093      -30.970736
