20
 generated by VMD
 C         -49.764812     -127.363846      -39.823555
 N         -48.959263     -126.695992      -39.305351
 H         -47.116512     -126.597832      -41.914093
 H         -50.250305     -128.102997      -40.447010
 C         -46.404839     -126.013580      -41.292961
 C         -45.299446     -126.401878      -40.429665
 C         -46.758221     -124.535210      -41.211422
 C         -43.982937     -125.468193      -40.597946
 C         -45.542549     -123.626266      -41.460598
 C         -44.428600     -124.016823      -40.512638
 H         -45.047573     -127.395622      -40.643253
 H         -45.638962     -126.268707      -39.394032
 H         -47.536037     -124.179474      -41.947769
 H         -47.243912     -124.284882      -40.333637
 H         -43.498005     -125.761917      -41.497017
 H         -43.298832     -125.674515      -39.803513
 H         -45.732349     -122.557587      -41.050148
 H         -45.141357     -123.399338      -42.516846
 H         -43.498898     -123.378822      -40.705830
 H         -44.789524     -123.745819      -39.524609
