20
 generated by VMD
 C         -65.259323     -176.355606      -55.960155
 N         -65.399719     -177.358582      -55.413013
 H         -64.440552     -174.774490      -59.207588
 H         -65.108871     -175.454437      -56.523670
 C         -64.427650     -173.748886      -59.423965
 C         -65.117043     -172.735321      -58.599308
 C         -63.731983     -173.266632      -60.716202
 C         -64.666969     -171.282425      -58.643032
 C         -63.157021     -171.897705      -60.467926
 C         -64.097748     -170.857422      -59.987324
 H         -65.156136     -172.882874      -57.529026
 H         -66.163780     -172.670074      -59.056622
 H         -62.931099     -174.018295      -60.950394
 H         -64.453011     -173.466644      -61.509575
 H         -63.935730     -171.186447      -57.829788
 H         -65.407097     -170.531754      -58.401104
 H         -62.819672     -171.578262      -61.519894
 H         -62.314072     -171.950226      -59.775810
 H         -63.663021     -169.847595      -59.874428
 H         -64.915810     -170.731277      -60.662594
