20
 generated by VMD
 C         -38.082184     -114.038940      -35.361427
 N         -38.466831     -115.106613      -35.249989
 H         -41.389874     -114.666924      -36.417549
 H         -37.552074     -113.115372      -35.696297
 C         -42.463837     -114.828758      -36.653393
 C         -42.717804     -115.023819      -38.197952
 C         -43.517143     -114.780266      -35.672817
 C         -44.054100     -115.730156      -38.446480
 C         -44.690926     -115.646080      -36.007736
 C         -45.130367     -115.408890      -37.480953
 H         -41.838123     -115.631332      -38.578266
 H         -42.686066     -113.971764      -38.557182
 H         -43.298904     -115.049652      -34.668591
 H         -43.868969     -113.753998      -35.662338
 H         -43.862511     -116.768623      -38.412979
 H         -44.461422     -115.499031      -39.472588
 H         -45.515827     -115.557449      -35.242508
 H         -44.505489     -116.777924      -36.033333
 H         -46.061920     -116.096077      -37.673378
 H         -45.591908     -114.401894      -37.434418
