20
 generated by VMD
 C         -30.785334      -77.910591      -25.582777
 N         -31.772076      -77.757271      -26.243557
 H         -29.155045      -78.156181      -22.808897
 H         -30.093012      -78.080811      -24.708942
 C         -28.917477      -79.143524      -23.235407
 C         -27.421663      -79.376999      -23.425358
 C         -29.763393      -80.364250      -22.667007
 C         -26.837849      -79.806404      -22.057304
 C         -29.113583      -80.890343      -21.349838
 C         -27.613770      -81.120232      -21.605604
 H         -27.120041      -78.376190      -23.696285
 H         -27.123878      -80.113358      -24.133154
 H         -30.825844      -79.987747      -22.482748
 H         -29.877161      -81.168060      -23.353819
 H         -26.848547      -78.909744      -21.354177
 H         -25.801241      -80.050102      -22.150156
 H         -29.633165      -81.781410      -21.222622
 H         -29.219404      -80.064941      -20.638479
 H         -27.191462      -81.424118      -20.587908
 H         -27.442909      -81.982147      -22.378014
