20
 generated by VMD
 C         -48.435562     -135.659409      -46.317940
 N         -47.359451     -135.599838      -45.974751
 H         -51.959686     -135.039032      -45.889061
 H         -49.457867     -135.740585      -46.740829
 C         -51.692806     -135.742386      -45.102272
 C         -52.362534     -137.027145      -45.473812
 C         -51.275097     -135.564728      -43.661915
 C         -51.485580     -138.194321      -45.027969
 C         -50.479816     -136.770325      -43.188805
 C         -51.204685     -138.014664      -43.554409
 H         -52.491669     -136.953629      -46.554676
 H         -53.379154     -137.006470      -45.066917
 H         -50.758747     -134.607269      -43.536663
 H         -52.171898     -135.495590      -42.938133
 H         -50.554523     -138.208252      -45.697060
 H         -51.983780     -139.142273      -45.159172
 H         -50.393711     -136.739319      -42.075977
 H         -49.441929     -136.803284      -43.683495
 H         -50.531910     -138.828857      -43.188988
 H         -52.245220     -138.000748      -42.927475
