20
 generated by VMD
 C         -30.429800      -94.052513      -25.529646
 N         -29.556044      -93.613640      -24.888361
 H         -33.855671      -92.676338      -26.880657
 H         -31.184809      -94.599640      -26.229099
 C         -34.317711      -92.073387      -27.681953
 C         -35.778843      -92.276413      -27.824602
 C         -33.427746      -91.538971      -28.710192
 C         -36.384193      -91.385391      -28.971523
 C         -34.146900      -90.476227      -29.608845
 C         -35.491192      -91.043922      -30.150694
 H         -36.164291      -91.885506      -26.964048
 H         -36.108501      -93.328606      -27.805262
 H         -32.612106      -91.029358      -28.156363
 H         -32.959312      -92.255562      -29.301626
 H         -36.860966      -90.500366      -28.518576
 H         -37.264690      -92.006195      -29.377710
 H         -33.352970      -90.248032      -30.262209
 H         -34.321728      -89.512421      -29.060226
 H         -36.007050      -90.335159      -30.820431
 H         -35.216175      -91.935616      -30.837799
