20
 generated by VMD
 C         -67.300934     -189.638733      -66.527489
 N         -66.289436     -189.681473      -67.041565
 H         -70.110481     -190.493774      -65.646965
 H         -68.273445     -189.419846      -66.053795
 C         -70.811874     -190.163040      -64.957428
 C         -72.009933     -190.862869      -64.511032
 C         -70.424088     -188.993652      -64.258415
 C         -73.210892     -190.071518      -63.930149
 C         -71.527161     -188.001083      -63.867458
 C         -72.690430     -188.790878      -63.210850
 H         -71.677551     -191.552353      -63.752289
 H         -72.393143     -191.443680      -65.391029
 H         -70.006149     -189.305328      -63.319580
 H         -69.765640     -188.328384      -64.949760
 H         -73.790642     -190.721039      -63.251686
 H         -73.882851     -189.762100      -64.743591
 H         -71.958282     -187.511841      -64.787140
 H         -70.948936     -187.237320      -63.248047
 H         -72.363388     -189.022217      -62.267235
 H         -73.618996     -188.240311      -62.870892
