20
 generated by VMD
 C         -68.625534     -186.275803      -67.822197
 N         -68.237038     -187.329422      -67.521896
 H         -68.302780     -187.592804      -64.410316
 H         -69.011650     -185.270584      -68.165848
 C         -69.129807     -187.564728      -63.677635
 C         -68.935577     -187.342789      -62.269272
 C         -70.467957     -187.523041      -64.301071
 C         -69.881645     -188.179977      -61.383823
 C         -71.596848     -187.954453      -63.401165
 C         -71.417404     -187.816956      -61.848160
 H         -69.166443     -186.298523      -62.139175
 H         -67.923218     -187.588593      -61.960861
 H         -70.628754     -186.484177      -64.618019
 H         -70.523827     -188.098160      -65.175529
 H         -69.784584     -187.957062      -60.335812
 H         -69.657326     -189.248062      -61.501457
 H         -71.694756     -188.987320      -63.719398
 H         -72.410034     -187.281494      -63.617626
 H         -71.682388     -186.775696      -61.569550
 H         -71.887199     -188.635818      -61.198120
