20
 generated by VMD
 C         -56.546646     -150.110275      -47.647705
 N         -57.678402     -150.379425      -47.924717
 H         -53.794437     -148.623123      -47.526714
 H         -55.553207     -149.958206      -47.328476
 C         -53.708431     -147.967361      -48.431118
 C         -53.040215     -148.495041      -49.612339
 C         -54.430393     -146.755905      -48.642105
 C         -54.184036     -148.754471      -50.629128
 C         -55.544636     -146.889328      -49.641266
 C         -54.985764     -147.438766      -50.994598
 H         -52.398590     -149.411240      -49.390156
 H         -52.250954     -147.758987      -50.033089
 H         -54.724449     -146.501724      -47.647469
 H         -53.754883     -145.854614      -48.904381
 H         -54.893925     -149.543793      -50.376228
 H         -53.613338     -149.123886      -51.488205
 H         -56.090080     -146.053864      -49.809303
 H         -56.385147     -147.598236      -49.373192
 H         -55.794014     -147.791306      -51.582603
 H         -54.335064     -146.723770      -51.522697
