20
 generated by VMD
 C         -13.044188      -29.892410       -7.467823
 N         -13.645855      -29.312384       -8.209681
 H         -11.532926      -30.291431       -4.844766
 H         -10.172482      -30.362560       -3.803048
 C         -10.737966      -30.956749       -4.455503
 C          -9.760123      -31.436735       -5.494007
 C         -11.376265      -32.077202       -3.654838
 C          -8.793800      -32.460133       -4.834273
 C         -10.477311      -33.177780       -3.141491
 C          -9.592160      -33.654598       -4.212421
 H          -9.136728      -30.619913       -5.843788
 H         -10.332953      -31.867283       -6.316600
 H         -11.908544      -31.714384       -2.773323
 H         -12.119133      -32.523968       -4.287979
 H          -8.360724      -31.904173       -3.982538
 H          -8.014540      -32.717449       -5.557195
 H         -11.094921      -33.963474       -2.709811
 H          -9.926935      -32.666332       -2.309575
 H          -8.864799      -34.338707       -3.828328
 H         -10.210303      -34.075062       -5.000762
