20
 generated by VMD
 C         -58.704411     -158.889053      -58.155914
 N         -58.755093     -159.709412      -57.406532
 H         -58.947414     -160.760361      -54.758530
 H         -58.651974     -158.151550      -58.905231
 C         -59.426884     -161.244415      -53.958927
 C         -58.699352     -161.601883      -52.700417
 C         -60.671707     -162.060577      -54.193855
 C         -59.761677     -161.660309      -51.512760
 C         -61.592800     -161.760498      -53.047733
 C         -61.090694     -162.280304      -51.681068
 H         -57.901573     -160.845734      -52.604954
 H         -58.300648     -162.546570      -52.774738
 H         -61.019184     -161.747330      -55.202797
 H         -60.514698     -163.170212      -54.277317
 H         -59.925018     -160.522705      -51.409336
 H         -59.199535     -162.116272      -50.640305
 H         -62.501495     -162.299881      -53.118099
 H         -61.938988     -160.758499      -53.016636
 H         -61.768200     -161.866837      -50.878281
 H         -61.031345     -163.339722      -51.833447
