20
 generated by VMD
 C         -11.142905      -33.902088       -9.373197
 N         -11.342990      -33.764198       -8.260002
 H         -11.559088      -37.698139       -8.190819
 H         -12.029237      -36.701992       -6.747880
 C         -12.260010      -37.637577       -7.294436
 C         -12.279041      -38.951336       -6.572291
 C         -13.630436      -37.399921       -7.938136
 C         -13.417718      -39.087814       -5.530313
 C         -14.779243      -37.505714       -6.972104
 C         -14.745253      -38.764778       -6.180171
 H         -11.353482      -39.073139       -6.007379
 H         -12.325116      -39.728867       -7.311072
 H         -13.511149      -36.334709       -8.328842
 H         -13.740771      -38.101513       -8.752985
 H         -13.266371      -38.336250       -4.736536
 H         -13.391302      -40.055317       -5.120666
 H         -15.810207      -37.430229       -7.529232
 H         -14.772013      -36.693192       -6.259486
 H         -15.559202      -38.816315       -5.403481
 H         -14.994567      -39.551411       -6.913647
