20
 generated by VMD
 C         -59.251076     -158.327621      -56.023193
 N         -58.937973     -158.558365      -57.072090
 H         -60.725433     -158.100021      -52.502270
 H         -59.603096     -157.979584      -55.081795
 C         -60.024136     -158.740891      -52.999184
 C         -58.475006     -158.689804      -52.760521
 C         -60.563274     -160.168594      -53.240955
 C         -58.123566     -159.653702      -51.549793
 C         -60.032818     -161.112244      -52.166645
 C         -58.573277     -161.008728      -51.987438
 H         -58.172775     -157.578232      -52.539310
 H         -57.870899     -158.872543      -53.677719
 H         -61.734013     -160.248627      -53.355282
 H         -60.102810     -160.354782      -54.219273
 H         -58.622383     -159.358749      -50.617214
 H         -56.973259     -159.711243      -51.345734
 H         -60.294800     -162.119583      -52.587906
 H         -60.592976     -161.038727      -51.188622
 H         -58.215385     -161.650589      -51.245396
 H         -57.971207     -161.167343      -52.941841
