20
 generated by VMD
 C         -66.695412     -190.223938      -66.668884
 N         -67.732315     -190.210266      -66.140045
 H         -70.590050     -190.836227      -66.413940
 H         -65.807625     -190.466919      -67.179001
 C         -71.182640     -190.437057      -65.579445
 C         -72.435600     -191.182144      -65.203445
 C         -70.480431     -189.389587      -64.804451
 C         -73.361259     -190.394745      -64.235695
 C         -71.409683     -188.653778      -63.883724
 C         -72.532150     -189.519440      -63.169365
 H         -72.043083     -191.999237      -64.646111
 H         -72.934807     -191.456299      -66.149399
 H         -69.714592     -189.948563      -64.311943
 H         -69.947212     -188.758377      -65.490448
 H         -74.136368     -191.103806      -63.798012
 H         -73.995674     -189.689178      -64.809700
 H         -71.885429     -187.854736      -64.396866
 H         -70.809227     -188.071701      -63.151104
 H         -72.023788     -190.084244      -62.422722
 H         -73.263687     -188.897079      -62.692448
