20
 generated by VMD
 C         -77.527206     -203.051056      -69.497559
 N         -77.962692     -203.897308      -68.795586
 H         -75.004463     -201.836365      -67.217918
 H         -77.162315     -202.132294      -70.055962
 C         -74.989456     -201.587845      -68.236153
 C         -75.155899     -200.169662      -68.553551
 C         -73.887886     -202.381424      -68.851959
 C         -74.758827     -199.619598      -69.958015
 C         -73.163887     -201.668152      -69.946449
 C         -74.003746     -200.853836      -70.763626
 H         -74.516045     -199.603317      -67.824875
 H         -76.151337     -199.960892      -68.331223
 H         -73.198631     -202.861389      -68.145180
 H         -74.362381     -203.302231      -69.343750
 H         -73.946602     -198.830399      -69.900787
 H         -75.572716     -199.213257      -70.641624
 H         -72.752731     -202.350235      -70.665909
 H         -72.377197     -201.075424      -69.481346
 H         -73.385643     -200.335373      -71.544327
 H         -74.715805     -201.378876      -71.237167
