20
 generated by VMD
 C         -30.942530      -77.820656      -25.359619
 N         -31.859478      -77.120255      -25.375853
 H         -29.246822      -76.963242      -22.390493
 H         -30.148546      -78.642281      -25.112206
 C         -28.584778      -77.791534      -22.266987
 C         -27.459841      -77.940018      -23.195284
 C         -29.116369      -78.999390      -21.545553
 C         -26.348293      -78.844460      -22.593204
 C         -27.996435      -79.775307      -20.789255
 C         -26.941196      -80.197777      -21.888794
 H         -27.064354      -76.963531      -23.652390
 H         -27.898064      -78.301727      -24.191267
 H         -29.839331      -78.650223      -20.835541
 H         -29.781008      -79.530357      -22.286491
 H         -25.901777      -78.175392      -21.838919
 H         -25.670404      -79.297806      -23.326582
 H         -28.378796      -80.768097      -20.493826
 H         -27.578255      -79.188629      -19.950689
 H         -26.140989      -80.698235      -21.430468
 H         -27.396357      -80.734413      -22.745195
