20
 generated by VMD
 C         -32.501823      -95.726562      -25.539438
 N         -33.187183      -95.500092      -24.647787
 H         -33.958065      -93.959900      -27.551302
 H         -31.788769      -95.965500      -26.277515
 C         -34.358269      -93.882690      -28.527475
 C         -35.807255      -93.581406      -28.831223
 C         -33.411621      -93.446312      -29.600912
 C         -36.090965      -92.277306      -29.603998
 C         -33.713642      -92.052444      -30.305616
 C         -35.179276      -92.051453      -30.771511
 H         -36.305214      -93.517159      -27.851490
 H         -36.121284      -94.500786      -29.247364
 H         -32.417953      -93.302338      -29.135010
 H         -33.347977      -94.190414      -30.373905
 H         -36.071545      -91.455017      -28.909620
 H         -37.133743      -92.266022      -30.051670
 H         -32.978394      -91.948303      -31.176723
 H         -33.438900      -91.085945      -29.742476
 H         -35.251881      -91.001167      -31.297588
 H         -35.367386      -92.860527      -31.526962
