20
 generated by VMD
 C         -79.814377     -206.930405      -75.815689
 N         -80.116798     -207.244400      -74.762489
 H         -77.154961     -207.985580      -73.263527
 H         -79.556961     -206.482788      -76.738113
 C         -76.831650     -208.495300      -72.266304
 C         -75.690239     -208.096970      -71.390762
 C         -77.744820     -209.575211      -71.585136
 C         -76.047119     -207.857651      -69.880829
 C         -78.257050     -209.189819      -70.163345
 C         -76.952766     -208.916168      -69.228424
 H         -75.276794     -207.198593      -71.878082
 H         -74.943649     -208.941544      -71.339188
 H         -78.504234     -209.590988      -72.331078
 H         -77.321587     -210.599228      -71.575981
 H         -76.540825     -206.869965      -69.802361
 H         -75.098709     -207.921478      -69.334511
 H         -78.827980     -209.951706      -69.730186
 H         -78.912163     -208.293137      -70.270294
 H         -77.198074     -208.582611      -68.179810
 H         -76.584106     -209.943817      -69.146378
