20
 generated by VMD
 C         -22.661850      -55.209862      -15.231129
 N         -23.091002      -55.192108      -16.349390
 H         -19.014034      -54.470963      -15.432994
 H         -22.084528      -55.349857      -14.191175
 C         -19.214825      -55.375175      -14.782362
 C         -19.040068      -55.178341      -13.321067
 C         -19.524029      -56.622475      -15.445841
 C         -19.532309      -56.378521      -12.592505
 C         -19.440117      -57.925121      -14.616483
 C         -19.088085      -57.731113      -13.142653
 H         -19.523682      -54.260624      -12.977817
 H         -17.967541      -54.914696      -13.112700
 H         -20.513870      -56.637486      -15.802099
 H         -19.063927      -56.534634      -16.469900
 H         -20.625841      -56.321854      -12.619382
 H         -19.169243      -56.314766      -11.543818
 H         -18.628021      -58.555996      -15.062033
 H         -20.367376      -58.497757      -14.752723
 H         -19.435556      -58.474808      -12.454735
 H         -17.990156      -57.649544      -13.044374
