20
 generated by VMD
 C         -74.998787     -201.586945      -66.642136
 N         -75.089226     -201.707413      -65.472824
 H         -76.299942     -199.557083      -68.866333
 H         -74.708534     -201.450668      -67.655640
 C         -75.366646     -198.938889      -69.034302
 C         -74.960121     -197.754044      -68.251717
 C         -74.304962     -199.581650      -69.943855
 C         -73.415024     -197.712936      -67.995148
 C         -73.124962     -198.553162      -70.392693
 C         -72.613770     -197.640366      -69.327560
 H         -75.617241     -197.598587      -67.464088
 H         -75.158463     -196.919708      -68.868469
 H         -73.790970     -200.316269      -69.341675
 H         -74.826752     -199.965927      -70.887329
 H         -73.237831     -198.636185      -67.486763
 H         -73.226906     -196.779327      -67.417717
 H         -73.557159     -198.030518      -71.214981
 H         -72.280830     -199.037750      -70.802704
 H         -71.643234     -197.726700      -69.040039
 H         -72.687973     -196.556046      -69.817528
