20
 generated by VMD
 C         -59.666965     -152.045853      -49.591667
 N         -58.676109     -152.376572      -50.196182
 H         -56.670258     -151.115555      -48.691582
 H         -60.527538     -151.619873      -49.012005
 C         -55.860283     -150.567627      -49.176170
 C         -54.790821     -151.523117      -49.683193
 C         -55.361362     -149.054474      -49.092545
 C         -54.214561     -151.103806      -51.042858
 C         -54.838936     -148.699722      -50.602947
 C         -53.754871     -149.668060      -51.117069
 H         -55.192448     -152.542618      -49.962738
 H         -54.129490     -151.727173      -48.896526
 H         -56.137653     -148.412155      -48.733948
 H         -54.462292     -149.105606      -48.404221
 H         -55.013393     -151.333405      -51.768883
 H         -53.408226     -151.773712      -51.478386
 H         -54.375591     -147.679825      -50.643940
 H         -55.707214     -148.742737      -51.297104
 H         -53.615982     -149.463120      -52.127907
 H         -52.762741     -149.587784      -50.556396
