20
 generated by VMD
 C         -78.184502     -203.753006      -69.281090
 N         -79.115036     -204.276306      -69.757538
 H         -75.482613     -202.163223      -67.248833
 H         -77.186691     -203.244568      -69.088028
 C         -75.073433     -201.865921      -68.289360
 C         -75.085258     -200.461960      -68.730408
 C         -73.897331     -202.649002      -68.938484
 C         -74.756561     -200.229767      -70.202431
 C         -72.855522     -201.777008      -69.723808
 C         -73.655777     -201.173080      -70.849892
 H         -74.380707     -199.875488      -68.124001
 H         -76.084755     -200.014557      -68.594017
 H         -73.313812     -203.158722      -68.139191
 H         -74.336700     -203.595657      -69.541595
 H         -74.464050     -199.184143      -70.352623
 H         -75.701614     -200.459274      -70.798912
 H         -72.059372     -202.337280      -70.222061
 H         -72.292610     -201.170135      -69.035370
 H         -72.982529     -200.652618      -71.502441
 H         -74.062035     -201.960922      -71.352043
