20
 generated by VMD
 C         -40.862595     -103.942093      -36.989113
 N         -40.910477     -104.866257      -36.306767
 H         -39.808868     -105.623245      -33.950245
 H         -40.629005     -103.269966      -37.812714
 C         -39.234108     -106.319603      -33.437046
 C         -37.871983     -106.077560      -32.736794
 C         -39.675289     -107.696648      -33.426395
 C         -37.657154     -106.854630      -31.364544
 C         -39.561401     -108.309006      -32.048378
 C         -38.081997     -108.318909      -31.382818
 H         -37.807873     -105.038010      -32.581299
 H         -37.021996     -106.507851      -33.297379
 H         -40.685860     -107.764137      -33.763702
 H         -39.096405     -108.472702      -34.067043
 H         -38.298374     -106.261070      -30.629171
 H         -36.587036     -106.706718      -31.143841
 H         -39.780529     -109.358192      -32.077404
 H         -40.260204     -107.836311      -31.317726
 H         -38.168896     -108.928711      -30.423346
 H         -37.409718     -108.827904      -32.088593
