20
 generated by VMD
 C         -56.376545     -150.060028      -47.698143
 N         -57.474995     -150.304703      -47.582382
 H         -53.126781     -147.971161      -47.365227
 H         -55.413979     -149.714890      -47.892925
 C         -53.498199     -147.703888      -48.341816
 C         -53.091255     -148.538391      -49.579243
 C         -54.526299     -146.544678      -48.471592
 C         -54.180386     -148.605194      -50.782894
 C         -55.579304     -146.717728      -49.692997
 C         -54.952240     -147.368118      -50.990959
 H         -53.100834     -149.673340      -49.156265
 H         -52.209522     -148.275467      -50.098461
 H         -55.272476     -146.524368      -47.588116
 H         -53.994911     -145.566193      -48.491745
 H         -55.012711     -149.332840      -50.557106
 H         -53.699295     -148.902420      -51.721149
 H         -55.795795     -145.716614      -49.849369
 H         -56.461117     -147.284119      -49.345505
 H         -55.796646     -147.538803      -51.683239
 H         -54.324043     -146.612503      -51.461525
