20
 generated by VMD
 C         -51.337696     -127.732803      -41.400848
 N         -51.854511     -128.645920      -41.834682
 H         -47.547413     -127.891197      -40.724091
 H         -51.115238     -126.811340      -40.898884
 C         -46.599655     -127.322159      -40.698475
 C         -45.287464     -127.739182      -40.066975
 C         -46.729462     -126.005127      -41.178417
 C         -44.018406     -127.089005      -40.762829
 C         -45.564075     -125.339912      -41.906143
 C         -44.187016     -125.617363      -41.108101
 H         -45.058456     -128.855316      -40.208626
 H         -45.203503     -127.470879      -39.049465
 H         -47.581573     -125.812912      -41.898598
 H         -47.192867     -125.349152      -40.316757
 H         -43.773018     -127.601562      -41.754513
 H         -43.088345     -127.365860      -40.197155
 H         -45.542076     -124.246048      -42.020779
 H         -45.346252     -125.722290      -42.932152
 H         -43.363091     -125.311943      -41.771114
 H         -44.134136     -125.018776      -40.204819
