20
 generated by VMD
 C         -59.931328     -152.125549      -50.165535
 N         -58.848026     -152.646866      -50.116447
 H         -56.780025     -150.956543      -48.807838
 H         -60.887108     -151.548813      -50.178490
 C         -55.734642     -150.733978      -48.971218
 C         -54.803280     -151.748276      -49.712063
 C         -55.353836     -149.249298      -49.208801
 C         -54.378151     -151.308578      -51.100010
 C         -54.865799     -148.784088      -50.666153
 C         -53.771534     -149.913132      -51.060371
 H         -55.185791     -152.748856      -49.719048
 H         -53.865505     -151.808014      -49.015720
 H         -56.097111     -148.519409      -48.736782
 H         -54.430237     -149.051620      -48.665268
 H         -55.284649     -151.199356      -51.760075
 H         -53.743034     -152.030899      -51.591938
 H         -54.237995     -147.774109      -50.539410
 H         -55.653702     -148.726334      -51.396286
 H         -53.376007     -149.651489      -52.078140
 H         -53.002480     -149.837646      -50.411949
