20
 generated by VMD
 C         -68.545235     -189.268845      -67.250732
 N         -67.416183     -189.258774      -66.965027
 H         -68.508270     -188.223373      -63.645458
 H         -69.563118     -189.483032      -67.610794
 C         -69.561028     -188.329987      -63.335365
 C         -70.131752     -189.653168      -63.461285
 C         -70.456490     -187.306259      -62.888241
 C         -71.394508     -189.690475      -64.352783
 C         -71.798790     -187.292053      -63.607925
 C         -72.511032     -188.720139      -63.862579
 H         -70.244766     -189.950989      -62.354591
 H         -69.439590     -190.427246      -63.921780
 H         -70.646973     -187.394852      -61.809612
 H         -69.968681     -186.370010      -63.103130
 H         -71.736061     -190.694305      -64.338585
 H         -71.136185     -189.438324      -65.414894
 H         -71.706131     -186.825623      -64.627480
 H         -72.546944     -186.828354      -62.980560
 H         -72.839600     -189.048691      -62.786747
 H         -73.337433     -188.690811      -64.543633
