20
 generated by VMD
 C         -40.105442     -100.704720      -31.826311
 N         -40.932705     -100.392975      -31.094357
 H         -37.769608     -103.334450      -32.020504
 H         -39.114197     -100.976257      -32.321312
 C         -36.819550     -102.861397      -31.736515
 C         -35.953911     -102.292854      -32.839264
 C         -36.770985     -102.302361      -30.386801
 C         -35.482826     -100.935921      -32.465702
 C         -36.727833     -100.835403      -30.330854
 C         -35.431000     -100.588623      -31.065926
 H         -36.408489     -102.427483      -33.848782
 H         -35.048878     -102.957970      -32.892803
 H         -37.714031     -102.605133      -29.906487
 H         -35.929646     -102.834549      -29.830700
 H         -36.002396     -100.190758      -33.134422
 H         -34.405693     -100.954559      -32.857731
 H         -36.666965     -100.552261      -29.248316
 H         -37.575741     -100.347824      -30.678814
 H         -35.196251      -99.554222      -30.931278
 H         -34.508698     -101.010056      -30.583744
