20
 generated by VMD
 C         -40.138500     -107.261375      -37.777527
 N         -39.169865     -106.585495      -37.865105
 H         -38.897457     -108.270111      -34.692417
 H         -41.099140     -107.737160      -37.801407
 C         -39.554924     -109.018959      -34.141697
 C         -38.835556     -110.147369      -33.360729
 C         -41.109035     -108.944489      -34.214924
 C         -39.760868     -110.829086      -32.422630
 C         -41.790489     -109.575768      -33.045315
 C         -41.169693     -110.976425      -32.800076
 H         -37.845905     -109.776566      -32.987137
 H         -38.571945     -110.800949      -34.182430
 H         -41.414810     -107.899544      -34.319801
 H         -41.428387     -109.422867      -35.164680
 H         -39.683323     -110.348595      -31.371634
 H         -39.388084     -111.909927      -32.251144
 H         -42.789703     -109.821449      -33.277180
 H         -41.771004     -108.947372      -32.205677
 H         -41.654907     -111.358185      -31.927353
 H         -41.329845     -111.735245      -33.537106
