20
 generated by VMD
 C         -69.237244     -180.369995      -59.625168
 N         -68.671844     -181.000885      -60.400772
 H         -67.493599     -176.969666      -59.627502
 H         -69.712242     -179.759460      -58.842075
 C         -66.419594     -176.937927      -59.928837
 C         -66.045921     -176.731110      -61.461521
 C         -65.266777     -176.910919      -58.835155
 C         -64.860573     -175.698151      -61.537472
 C         -64.077469     -176.025528      -59.161755
 C         -63.640354     -176.053879      -60.638321
 H         -66.869057     -176.144958      -61.945568
 H         -65.908852     -177.622650      -62.062119
 H         -65.720207     -176.700012      -57.828785
 H         -64.969131     -177.906174      -58.857162
 H         -65.306778     -174.666504      -61.216816
 H         -64.479744     -175.686783      -62.543724
 H         -63.328102     -176.489685      -58.577286
 H         -64.386902     -175.050522      -58.765503
 H         -62.881191     -175.378769      -61.041222
 H         -63.373985     -177.028809      -60.918644
