20
 generated by VMD
 C         -41.090313     -103.915733      -35.925793
 N         -41.792049     -104.847801      -35.963921
 H         -38.778309     -103.879990      -33.009922
 H         -40.249619     -103.255554      -35.897835
 C         -38.351074     -104.862907      -32.784557
 C         -36.951855     -105.244400      -32.416550
 C         -39.276089     -105.996895      -33.142006
 C         -36.804157     -106.101173      -31.229677
 C         -39.232681     -107.024651      -32.059616
 C         -37.728367     -107.363007      -31.482346
 H         -36.449520     -104.214348      -32.274315
 H         -36.451302     -105.741150      -33.308933
 H         -40.336113     -105.557419      -33.214062
 H         -39.021626     -106.412392      -34.065342
 H         -37.073246     -105.584030      -30.335764
 H         -35.791237     -106.514557      -31.148993
 H         -39.843269     -107.995377      -32.033768
 H         -39.579094     -106.493698      -31.185734
 H         -37.745686     -107.917397      -30.581299
 H         -37.228153     -108.041481      -32.248943
