20
 generated by VMD
 C         -49.424854     -141.515579      -45.807865
 N         -49.200321     -141.885468      -44.774406
 H         -51.578964     -138.486954      -46.308575
 H         -49.736057     -141.305374      -46.835384
 C         -52.208572     -139.338470      -46.433556
 C         -52.927921     -139.477188      -47.726181
 C         -52.878658     -140.023544      -45.240067
 C         -53.164719     -140.903473      -48.076542
 C         -53.233734     -141.407623      -45.619247
 C         -53.881157     -141.623383      -47.023998
 H         -52.373550     -138.994675      -48.532940
 H         -53.787712     -138.838318      -47.501976
 H         -52.110199     -140.167755      -44.517517
 H         -53.693016     -139.579239      -44.864197
 H         -52.076897     -141.314087      -48.296112
 H         -53.705650     -140.968674      -49.095852
 H         -53.977997     -141.697922      -44.865822
 H         -52.375805     -142.024612      -45.684151
 H         -53.901287     -142.729950      -47.340328
 H         -54.965294     -141.222076      -47.068031
