20
 generated by VMD
 C         -58.860748     -161.274567      -56.533676
 N         -58.521374     -160.205612      -56.949009
 H         -59.093548     -164.186783      -55.121754
 H         -59.152840     -162.270447      -56.176010
 C         -59.808895     -163.622650      -54.546074
 C         -59.465065     -163.259323      -53.157074
 C         -61.323021     -163.722961      -55.009827
 C         -60.413830     -162.218826      -52.526646
 C         -62.047840     -162.406082      -54.579666
 C         -61.908852     -162.275360      -53.024220
 H         -58.409286     -163.148285      -52.971310
 H         -59.604664     -164.102905      -52.528347
 H         -61.384434     -163.869675      -56.060497
 H         -61.812401     -164.553131      -54.446121
 H         -60.012508     -161.240723      -52.971695
 H         -60.156929     -162.288681      -51.446239
 H         -63.148396     -162.444016      -54.933674
 H         -61.584259     -161.544861      -55.094711
 H         -62.261593     -161.220108      -52.710152
 H         -62.480034     -163.060577      -52.495991
