20
 generated by VMD
 C         -73.868256     -200.504837      -65.659035
 N         -73.160072     -201.103882      -64.965248
 H         -72.645851     -197.627350      -66.430725
 H         -74.439804     -199.693481      -66.118019
 C         -72.975082     -197.155319      -67.354889
 C         -73.926361     -195.874802      -67.271576
 C         -72.730324     -197.662399      -68.790131
 C         -73.824181     -195.092316      -68.580986
 C         -73.795952     -197.304291      -69.826859
 C         -74.448235     -195.875168      -69.686180
 H         -73.683601     -195.429581      -66.351303
 H         -75.007225     -196.144348      -67.099396
 H         -71.708069     -197.396927      -69.103470
 H         -72.745720     -198.743576      -68.702019
 H         -72.816902     -194.720917      -68.813240
 H         -74.544334     -194.241867      -68.438492
 H         -74.595413     -198.078461      -69.705757
 H         -73.467842     -197.543442      -70.810944
 H         -74.325333     -195.460876      -70.754356
 H         -75.501274     -196.038635      -69.608292
