20
 generated by VMD
 C         -23.266920      -53.259418      -13.870266
 N         -23.930929      -53.027805      -14.788896
 H         -20.579481      -55.534660      -14.353186
 H         -22.826460      -53.720951      -13.088995
 C         -19.589670      -55.271423      -14.221453
 C         -19.143644      -53.949924      -13.840117
 C         -18.580477      -56.289032      -14.647770
 C         -18.106188      -54.037605      -12.761523
 C         -17.523350      -56.457493      -13.543402
 C         -16.958776      -55.074554      -13.103223
 H         -19.939428      -53.246941      -13.539011
 H         -18.730223      -53.459412      -14.759046
 H         -19.050634      -57.285561      -14.952435
 H         -18.015959      -55.923096      -15.502040
 H         -18.612310      -54.353462      -11.838588
 H         -17.793055      -53.025517      -12.524832
 H         -16.717218      -57.112499      -13.894815
 H         -18.020330      -56.980282      -12.731904
 H         -16.275570      -55.255329      -12.222355
 H         -16.318155      -54.647926      -13.893106
