20
 generated by VMD
 C         -59.293503     -158.612717      -57.416119
 N         -58.585449     -158.239655      -58.182716
 H         -59.826981     -158.869766      -53.854324
 H         -59.941189     -158.941208      -56.607014
 C         -59.758335     -159.828842      -53.384754
 C         -58.441463     -160.042816      -52.654869
 C         -60.698616     -160.942398      -53.606552
 C         -58.788620     -160.577179      -51.139629
 C         -60.825279     -161.763138      -52.324104
 C         -59.637924     -161.831604      -51.270237
 H         -57.867218     -159.179520      -52.559731
 H         -57.893970     -160.666290      -53.366158
 H         -61.699795     -160.621338      -53.928162
 H         -60.189457     -161.433105      -54.450279
 H         -59.328983     -159.811722      -50.559708
 H         -57.689682     -160.972580      -50.709267
 H         -61.148239     -162.788315      -52.553570
 H         -61.671070     -161.296005      -51.729099
 H         -60.054916     -161.995819      -50.270226
 H         -58.923321     -162.642715      -51.585209
