20
 generated by VMD
 C         -31.062923      -75.311668      -21.398710
 N         -32.095955      -75.695656      -21.710070
 H         -28.206106      -75.970497      -20.299910
 H         -30.009493      -74.906891      -21.055361
 C         -27.390450      -75.737206      -21.014433
 C         -26.700327      -76.796555      -21.812506
 C         -26.570097      -74.463135      -20.615084
 C         -25.727053      -76.326355      -22.870502
 C         -25.563505      -74.002762      -21.664965
 C         -24.815210      -75.172394      -22.319611
 H         -27.451925      -77.488136      -22.222231
 H         -25.997734      -77.402359      -21.150591
 H         -27.290133      -73.671326      -20.479485
 H         -26.001091      -74.637016      -19.768641
 H         -26.290665      -75.798401      -23.619492
 H         -25.194054      -77.161934      -23.316355
 H         -24.851130      -73.281593      -21.210213
 H         -26.139442      -73.442902      -22.385185
 H         -23.983633      -74.875877      -23.006235
 H         -24.157673      -75.645828      -21.511705
