20
 generated by VMD
 C         -30.983503      -78.320847      -26.208359
 N         -31.682486      -77.557747      -25.644554
 H         -29.231073      -77.651581      -23.166353
 H         -30.429758      -79.056046      -26.685598
 C         -28.821886      -78.596062      -22.771095
 C         -27.314098      -78.633423      -23.043709
 C         -29.653715      -79.630966      -22.111713
 C         -26.608559      -79.687515      -22.207632
 C         -28.859493      -80.712158      -21.324358
 C         -27.450623      -80.969826      -21.876261
 H         -26.908058      -77.645935      -22.998426
 H         -27.179577      -78.867409      -24.047297
 H         -30.514339      -79.115601      -21.493057
 H         -30.205454      -80.107056      -22.924074
 H         -26.349630      -79.150452      -21.299438
 H         -25.750351      -80.144218      -22.611250
 H         -29.393253      -81.713455      -21.396910
 H         -28.721573      -80.384666      -20.142504
 H         -26.899740      -81.667068      -21.228659
 H         -27.556370      -81.487564      -22.878050
