20
 generated by VMD
 C         -50.202156     -145.168182      -44.777431
 N         -49.599918     -144.333008      -44.311436
 H         -52.955952     -142.636703      -45.754715
 H         -50.612602     -145.931351      -45.355709
 C         -53.325886     -142.634766      -46.766331
 C         -52.409168     -142.672791      -48.027805
 C         -54.634918     -141.907608      -46.725414
 C         -53.317120     -142.896988      -49.290428
 C         -55.422451     -142.144028      -48.014118
 C         -54.592636     -141.961609      -49.249706
 H         -51.781540     -143.547287      -47.859089
 H         -51.946175     -141.736374      -48.324474
 H         -55.293678     -142.082870      -45.889820
 H         -54.383549     -140.887894      -46.616772
 H         -53.647823     -143.855896      -49.414162
 H         -52.708229     -142.679291      -50.111580
 H         -56.308784     -141.534836      -48.077087
 H         -55.740044     -143.190414      -48.037319
 H         -55.214844     -142.361374      -50.019478
 H         -54.401043     -140.958221      -49.261173
