20
 generated by VMD
 C         -79.734192     -205.548096      -72.320198
 N         -80.087914     -206.622360      -72.342079
 H         -77.617210     -204.634216      -71.182686
 H         -79.603920     -204.431610      -72.265938
 C         -76.619308     -205.030502      -71.079651
 C         -75.438675     -204.121216      -71.403496
 C         -76.330910     -206.424728      -70.667656
 C         -74.556831     -203.995499      -70.026367
 C         -75.623817     -206.254700      -69.184380
 C         -74.421707     -205.252991      -69.228668
 H         -75.873810     -203.082672      -71.648766
 H         -74.912209     -204.472900      -72.288734
 H         -77.247635     -206.942032      -70.387321
 H         -75.709755     -207.009308      -71.290565
 H         -75.124466     -203.213928      -69.445427
 H         -73.613693     -203.513474      -70.340172
 H         -75.387848     -207.242432      -68.818001
 H         -76.350594     -205.952194      -68.449608
 H         -74.113518     -205.106003      -68.175560
 H         -73.562279     -205.733398      -69.708405
