20
 generated by VMD
 C          -5.810457      -21.828970        1.873775
 N          -6.565907      -22.634642        2.070959
 H          -5.185618      -19.243607       -0.827149
 H          -6.388188      -20.139420        0.031977
 C          -6.087542      -19.793365       -1.002149
 C          -5.705441      -20.927887       -1.886623
 C          -7.155358      -18.982983       -1.723618
 C          -6.780513      -21.883791       -2.319313
 C          -8.319798      -19.837656       -2.173970
 C          -7.960469      -21.110682       -2.920678
 H          -4.967916      -21.515566       -1.374812
 H          -5.096646      -20.574692       -2.737059
 H          -7.475657      -18.284382       -1.017319
 H          -6.700587      -18.585970       -2.615478
 H          -7.149669      -22.362461       -1.429425
 H          -6.379049      -22.590837       -3.048572
 H          -8.950645      -19.161283       -2.789835
 H          -8.817444      -20.184418       -1.268544
 H          -8.809185      -21.747423       -3.032993
 H          -7.649364      -20.849886       -3.907978
