20
 generated by VMD
 C         -19.821508      -60.840317      -17.109577
 N         -19.542845      -59.857986      -17.699942
 H         -23.447378      -60.241177      -16.562866
 H         -19.943468      -61.771835      -16.698338
 C         -23.403498      -61.309986      -16.596842
 C         -23.336378      -62.161930      -17.827211
 C         -23.273315      -62.027630      -15.285134
 C         -23.154243      -63.642113      -17.626968
 C         -23.209661      -63.582378      -15.052766
 C         -23.736404      -64.155037      -16.352697
 H         -22.419062      -61.827778      -18.351913
 H         -24.109463      -61.785271      -18.546053
 H         -22.376635      -61.628391      -14.660770
 H         -24.098734      -61.619759      -14.666106
 H         -22.082907      -63.968727      -17.710699
 H         -23.653723      -64.222694      -18.423269
 H         -23.711901      -63.801643      -14.142044
 H         -22.186661      -63.873322      -14.932180
 H         -23.712017      -65.233192      -16.456278
 H         -24.789330      -63.911812      -16.343513
