20
 generated by VMD
 C         -31.244455      -77.562874      -25.802988
 N         -31.631182      -77.983246      -26.787802
 H         -29.313173      -78.487717      -22.988277
 H         -30.645092      -77.363319      -24.995619
 C         -28.957834      -79.479836      -23.201866
 C         -27.451612      -79.684601      -23.303471
 C         -29.834143      -80.660019      -22.843349
 C         -26.920105      -80.228180      -22.010717
 C         -29.192396      -81.191933      -21.446615
 C         -27.715990      -81.481209      -21.499887
 H         -26.873697      -78.759308      -23.482464
 H         -27.422052      -80.483391      -24.024137
 H         -30.913668      -80.410355      -22.704639
 H         -29.734903      -81.469719      -23.665384
 H         -27.019348      -79.466743      -21.300295
 H         -25.810661      -80.303703      -22.100277
 H         -29.805944      -82.125633      -21.189484
 H         -29.550369      -80.482552      -20.692890
 H         -27.427420      -81.832970      -20.476612
 H         -27.527357      -82.361565      -22.154860
