20
 generated by VMD
 C         -10.395406      -37.187996       -7.483698
 N         -10.530390      -36.323139       -8.149188
 H         -13.357687      -37.706535       -7.691727
 H         -14.447948      -38.486332       -6.436666
 C         -14.103862      -38.560135       -7.470167
 C         -13.252607      -39.826000       -7.637306
 C         -15.219424      -38.522594       -8.543056
 C         -14.163196      -41.033894       -7.332333
 C         -16.141562      -39.800877       -8.499821
 C         -15.323689      -41.092037       -8.358484
 H         -12.296001      -39.862835       -7.049666
 H         -12.860726      -39.929615       -8.700855
 H         -15.804230      -37.634029       -8.474622
 H         -14.768826      -38.370602       -9.539836
 H         -14.510038      -40.933174       -6.300401
 H         -13.683571      -42.007622       -7.300862
 H         -16.738495      -39.785191       -9.394283
 H         -16.847326      -39.632122       -7.664339
 H         -16.007086      -41.829014       -8.017406
 H         -14.880922      -41.447784       -9.296445
