20
 generated by VMD
 C         -63.443508     -174.674377      -56.163158
 N         -62.302456     -174.738495      -56.143944
 H         -66.141930     -173.036255      -58.122784
 H         -64.502739     -174.461288      -56.297810
 C         -65.362259     -172.378494      -58.406231
 C         -65.524223     -170.977371      -58.021084
 C         -64.592567     -172.793976      -59.612854
 C         -64.175735     -170.312271      -58.051907
 C         -63.359894     -171.925568      -59.917915
 C         -63.553608     -170.485138      -59.487835
 H         -65.911827     -171.092468      -57.077206
 H         -66.299995     -170.363831      -58.646797
 H         -64.226433     -173.759079      -59.340004
 H         -65.258636     -172.791321      -60.428837
 H         -63.405396     -170.745209      -57.264668
 H         -64.299370     -169.189224      -57.795937
 H         -63.178005     -171.983353      -61.018898
 H         -62.497715     -172.293610      -59.269234
 H         -62.632164     -169.935715      -59.470188
 H         -64.251732     -169.978470      -60.232506
