20
 generated by VMD
 C         -15.111242      -46.232246       -6.065864
 N         -14.767911      -47.259613       -5.854530
 H         -15.633658      -44.917732       -9.376265
 H         -14.618254      -45.042000      -10.829563
 C         -15.665361      -45.053146      -10.469286
 C         -16.431232      -43.872364      -11.137278
 C         -16.402420      -46.322487      -10.816251
 C         -16.680574      -43.854427      -12.682948
 C         -16.555414      -46.396641      -12.348133
 C         -17.278364      -45.200962      -12.991426
 H         -15.931479      -42.906811      -10.892746
 H         -17.419174      -43.768929      -10.658857
 H         -15.951233      -47.230919      -10.464741
 H         -17.381729      -46.266891      -10.325345
 H         -15.738626      -43.736332      -13.258055
 H         -17.282383      -42.983562      -12.984323
 H         -17.082859      -47.328957      -12.595147
 H         -15.502660      -46.521805      -12.767552
 H         -17.271345      -45.313869      -14.095949
 H         -18.328136      -45.334648      -12.627758
