20
 generated by VMD
 C         -47.655376     -138.039383      -45.973759
 N         -47.284531     -137.561890      -46.986279
 H         -50.336674     -137.159576      -44.786430
 H         -48.058849     -138.338226      -44.987534
 C         -51.225864     -137.790054      -44.756260
 C         -51.332420     -138.479355      -46.137543
 C         -52.534355     -137.623413      -43.987717
 C         -52.361073     -139.682129      -46.126858
 C         -53.548866     -138.709290      -44.120918
 C         -53.732559     -139.280594      -45.584305
 H         -50.332737     -138.878052      -46.468262
 H         -51.567356     -137.709549      -47.008278
 H         -52.340801     -137.317596      -42.984512
 H         -53.011543     -136.705276      -44.345795
 H         -51.891186     -140.574188      -45.574760
 H         -52.561749     -140.129959      -47.138344
 H         -54.479782     -138.398956      -43.774040
 H         -53.436172     -139.535461      -43.409836
 H         -54.368397     -140.125305      -45.662708
 H         -54.103794     -138.505173      -46.310413
