20
 generated by VMD
 C         -30.211748      -75.952164      -23.135408
 N         -30.881248      -75.680473      -24.063213
 H         -29.360971      -78.410011      -21.553312
 H         -29.362404      -76.385620      -22.387733
 C         -28.370050      -78.079300      -21.651981
 C         -27.624645      -78.099220      -22.957804
 C         -27.674282      -77.653900      -20.438086
 C         -26.670170      -76.946281      -23.144329
 C         -26.904524      -76.427902      -20.705423
 C         -25.987530      -76.501465      -21.880569
 H         -28.301256      -78.261032      -23.796358
 H         -26.900440      -79.051224      -23.000881
 H         -28.292648      -77.505356      -19.606752
 H         -26.905453      -78.444855      -20.221584
 H         -27.398392      -76.206284      -23.532642
 H         -25.948917      -77.021255      -23.957584
 H         -26.199478      -76.161858      -19.892431
 H         -27.559164      -75.585144      -20.730324
 H         -25.481390      -75.547150      -22.054003
 H         -25.342419      -77.365707      -21.599287
