20
 generated by VMD
 C         -78.965408     -207.398224      -75.309952
 N         -79.939674     -206.968155      -75.717674
 H         -77.799545     -209.048584      -73.401321
 H         -78.082458     -207.806961      -74.825142
 C         -77.601341     -209.117950      -72.313042
 C         -76.495445     -208.425247      -71.771461
 C         -78.223251     -210.107147      -71.494720
 C         -76.516174     -208.148590      -70.285408
 C         -78.206413     -209.954239      -69.972260
 C         -76.819061     -209.405548      -69.513283
 H         -76.030296     -207.590897      -72.259689
 H         -75.773598     -209.211227      -71.795937
 H         -79.248848     -210.289413      -71.811073
 H         -77.623970     -210.917099      -71.947014
 H         -77.298843     -207.381500      -70.041176
 H         -75.495575     -207.761978      -70.000893
 H         -78.618156     -210.871002      -69.427673
 H         -78.821510     -209.107056      -69.668236
 H         -76.856720     -209.293350      -68.434769
 H         -75.927567     -210.079636      -69.699516
