20
 generated by VMD
 C         -28.635683      -81.382164      -27.696302
 N         -29.604254      -80.816887      -27.425802
 H         -28.638826      -83.480301      -24.291567
 H         -27.637085      -81.963600      -27.670172
 C         -29.691004      -83.489471      -24.078541
 C         -29.985640      -83.668076      -22.710634
 C         -30.381361      -84.188164      -25.169847
 C         -31.431957      -84.151649      -22.388002
 C         -31.866095      -84.375664      -24.794727
 C         -32.046047      -85.104004      -23.461544
 H         -29.821110      -82.776054      -22.037380
 H         -29.253296      -84.441811      -22.292908
 H         -30.129368      -83.752274      -26.197247
 H         -29.841898      -85.156769      -25.257057
 H         -32.189442      -83.232529      -22.349476
 H         -31.402664      -84.636269      -21.484968
 H         -32.269749      -84.910919      -25.627691
 H         -32.365761      -83.298668      -24.822659
 H         -33.118027      -85.442253      -23.264162
 H         -31.503437      -86.020546      -23.594065
