20
 generated by VMD
 C         -23.658255      -68.851219      -16.558615
 N         -23.309494      -69.607887      -15.740650
 H         -23.974201      -65.997749      -18.976244
 H         -23.954185      -68.090019      -17.192678
 C         -24.477028      -66.896309      -19.487370
 C         -23.961323      -67.788422      -20.621201
 C         -25.883249      -67.085678      -19.083399
 C         -24.511869      -69.235954      -20.693331
 C         -26.334433      -68.562820      -19.245121
 C         -26.027191      -69.179688      -20.512098
 H         -22.793707      -67.782585      -20.564569
 H         -24.175484      -67.218895      -21.618286
 H         -25.911989      -66.875221      -18.037422
 H         -26.502926      -66.566589      -19.686045
 H         -24.063114      -69.868668      -19.874596
 H         -24.196629      -69.674232      -21.670809
 H         -27.424685      -68.488846      -19.243729
 H         -25.961767      -69.201378      -18.458918
 H         -26.374218      -70.188080      -20.605742
 H         -26.421032      -68.658852      -21.402847
