20
 generated by VMD
 C          -1.531118       -9.218608       -0.018456
 N          -2.601022       -9.081906        0.248683
 H          -2.487554      -10.638977        2.339444
 H          -2.155917      -11.668936        3.724511
 C          -2.859761      -11.484076        2.906287
 C          -2.643331      -12.713564        2.047764
 C          -4.264514      -11.258703        3.486889
 C          -3.320056      -13.922260        2.646876
 C          -4.799948      -12.560956        4.116446
 C          -4.781020      -13.680608        3.089388
 H          -1.573743      -12.981905        1.976210
 H          -2.977476      -12.564195        1.013569
 H          -4.423260      -10.435260        4.240244
 H          -5.063563      -11.016533        2.711619
 H          -2.769682      -14.259564        3.560610
 H          -3.294132      -14.789229        1.973966
 H          -5.790473      -12.405063        4.501894
 H          -4.208238      -12.844953        4.958029
 H          -5.211108      -14.519861        3.664998
 H          -5.462352      -13.559896        2.260507
