20
 generated by VMD
 C         -67.561920     -179.959427      -58.371372
 N         -68.327507     -179.958664      -59.230633
 H         -67.375572     -176.794891      -60.048374
 H         -66.770729     -179.997711      -57.604290
 C         -66.370537     -176.186829      -60.151035
 C         -66.034981     -175.521027      -61.370007
 C         -65.204628     -176.827072      -59.358200
 C         -64.880386     -174.496078      -61.147289
 C         -64.133820     -175.790833      -59.184448
 C         -63.598465     -175.288559      -60.601715
 H         -66.795097     -174.801315      -61.686623
 H         -65.766975     -176.260925      -62.136658
 H         -65.618958     -177.100418      -58.371510
 H         -64.939705     -177.752975      -59.953583
 H         -65.242409     -173.649582      -60.490131
 H         -64.528549     -174.167603      -62.170082
 H         -63.358269     -176.312057      -58.538807
 H         -64.357918     -174.970459      -58.524960
 H         -62.882374     -174.496368      -60.605412
 H         -63.513378     -176.171082      -61.273102
