20
 generated by VMD
 C         -41.113140     -102.486137      -35.031040
 N         -41.519779     -103.034157      -35.965050
 H         -39.627220     -104.150536      -32.517483
 H         -40.441422     -102.080841      -34.325268
 C         -38.745121     -104.844162      -32.385189
 C         -37.421211     -104.327850      -32.947983
 C         -38.751198     -106.199921      -31.917315
 C         -36.409046     -104.318810      -31.852341
 C         -37.822254     -106.137238      -30.635410
 C         -36.340981     -105.632195      -31.092459
 H         -37.680698     -103.392822      -33.402744
 H         -37.111065     -105.030762      -33.687099
 H         -39.746311     -106.312042      -31.738359
 H         -38.425816     -107.008667      -32.622925
 H         -36.673508     -103.552986      -31.158234
 H         -35.474934     -104.234558      -32.371399
 H         -37.832550     -107.154503      -30.227383
 H         -38.174282     -105.514244      -29.775379
 H         -35.536011     -105.682472      -30.300335
 H         -36.057732     -106.377594      -31.789967
