20
 generated by VMD
 C         -59.599236     -152.005920      -49.526386
 N         -58.682465     -152.358261      -50.195789
 H         -56.879761     -150.647354      -48.859512
 H         -60.372375     -151.780548      -48.784168
 C         -55.789780     -150.501617      -49.106998
 C         -54.775726     -151.457336      -49.706326
 C         -55.410851     -149.113693      -49.148605
 C         -54.216911     -151.100967      -51.117359
 C         -54.833645     -148.706238      -50.533272
 C         -53.771255     -149.661850      -51.134666
 H         -55.395241     -152.387222      -49.751442
 H         -53.920502     -151.584885      -49.075310
 H         -56.159653     -148.415863      -48.849163
 H         -54.609524     -148.918777      -48.374031
 H         -54.911575     -151.268311      -51.958138
 H         -53.291767     -151.736481      -51.139523
 H         -54.476891     -147.701950      -50.471684
 H         -55.711861     -148.613113      -51.283077
 H         -53.298290     -149.334473      -52.021080
 H         -52.918037     -149.572296      -50.358013
