20
 generated by VMD
 C         -68.826393     -185.786728      -66.383026
 N         -68.192986     -186.239899      -67.246292
 H         -69.431023     -183.253799      -63.790249
 H         -69.358620     -185.319519      -65.584663
 C         -69.401566     -184.125122      -63.032448
 C         -70.594574     -184.754410      -62.471626
 C         -67.998558     -184.348648      -62.415398
 C         -70.225609     -185.763687      -61.329323
 C         -67.855873     -185.421509      -61.421715
 C         -68.902534     -186.479233      -61.561302
 H         -71.014633     -185.437347      -63.272366
 H         -71.431824     -184.108109      -62.160030
 H         -67.308098     -184.537628      -63.254623
 H         -67.774834     -183.313644      -62.007389
 H         -70.961258     -186.547134      -61.148315
 H         -70.289505     -185.175476      -60.418873
 H         -67.802963     -185.031219      -60.320671
 H         -66.850304     -185.854630      -61.552776
 H         -68.897270     -187.020340      -62.493130
 H         -68.594666     -187.262726      -60.826973
