20
 generated by VMD
 C         -59.489662     -169.223953      -55.802582
 N         -59.687386     -168.559036      -54.821884
 H         -62.840397     -170.090927      -56.150681
 H         -59.329769     -169.665482      -56.794102
 C         -62.993683     -169.071640      -56.575138
 C         -62.848118     -168.814148      -58.013561
 C         -63.254681     -168.001770      -55.620068
 C         -63.559631     -167.656418      -58.576565
 C         -64.112762     -166.850922      -56.144325
 C         -63.583790     -166.466888      -57.589775
 H         -63.149281     -169.693787      -58.519958
 H         -61.703197     -168.708221      -58.256145
 H         -63.774624     -168.458710      -54.861958
 H         -62.349339     -167.609161      -55.236626
 H         -64.649437     -167.846268      -58.816216
 H         -62.954201     -167.400848      -59.505577
 H         -63.972256     -166.011368      -55.424282
 H         -65.168976     -166.918472      -56.272907
 H         -64.272072     -165.727829      -57.999592
 H         -62.603081     -166.014908      -57.411552
