20
 generated by VMD
 C         -51.309258     -145.536331      -44.081749
 N         -51.271221     -146.418167      -44.812397
 H         -53.549519     -144.814224      -46.531063
 H         -51.314121     -144.653351      -43.478661
 C         -53.747471     -144.327362      -47.482464
 C         -52.699661     -144.089523      -48.606426
 C         -54.755329     -143.229111      -47.305008
 C         -53.509571     -143.846115      -49.888180
 C         -55.423492     -142.902908      -48.700314
 C         -54.391628     -142.665863      -49.775394
 H         -52.143791     -145.131256      -48.829842
 H         -51.942928     -143.319809      -48.371414
 H         -55.495472     -143.557220      -46.627213
 H         -54.145649     -142.312820      -47.094826
 H         -53.966301     -144.800552      -50.161419
 H         -52.691986     -143.608322      -50.574883
 H         -56.131386     -141.990814      -48.657478
 H         -55.980225     -143.800507      -48.889668
 H         -54.939907     -142.593033      -50.752998
 H         -53.941624     -141.557144      -49.635094
