20
 generated by VMD
 C         -68.735268     -195.601471      -64.732246
 N         -68.624748     -196.725067      -65.024307
 H         -71.136063     -194.375046      -67.061455
 H         -68.685860     -194.586960      -64.527977
 C         -72.094643     -193.929962      -66.848412
 C         -72.138756     -192.402588      -66.753464
 C         -73.236458     -194.614731      -67.539070
 C         -73.546043     -191.935562      -66.269608
 C         -74.626076     -194.085632      -67.101273
 C         -74.715195     -192.596436      -67.166260
 H         -72.035118     -192.060165      -67.734917
 H         -71.391655     -191.982178      -66.114510
 H         -73.008209     -194.460831      -68.537994
 H         -73.196243     -195.631393      -67.374229
 H         -73.512772     -190.826294      -66.304520
 H         -73.855263     -192.228363      -65.220840
 H         -74.808914     -194.457825      -66.062531
 H         -75.430054     -194.483566      -67.732368
 H         -74.730827     -192.119125      -68.072319
 H         -75.672882     -192.291336      -66.504974
