20
 generated by VMD
 C         -21.711847      -52.333752      -11.396937
 N         -21.691038      -52.892799      -10.407600
 H         -19.947765      -51.433846      -13.897716
 H         -22.012825      -51.991226      -12.240400
 C         -18.951513      -51.553490      -13.660939
 C         -18.013981      -51.857609      -14.798626
 C         -18.511875      -51.375980      -12.265882
 C         -16.465538      -51.940918      -14.481740
 C         -17.025726      -51.132233      -12.197808
 C         -16.259823      -52.188492      -12.983567
 H         -18.024645      -50.942299      -15.401772
 H         -18.220095      -52.754383      -15.409939
 H         -19.120369      -50.556408      -11.778940
 H         -18.703461      -52.284409      -11.696210
 H         -15.922214      -51.035080      -14.701316
 H         -16.019258      -52.667522      -15.172592
 H         -16.664974      -51.048351      -11.217825
 H         -16.818661      -50.156734      -12.663439
 H         -15.258748      -52.259724      -12.641438
 H         -16.669138      -53.134090      -12.695016
