20
 generated by VMD
 C         -50.062176     -144.499969      -44.386974
 N         -49.302517     -143.857468      -44.952148
 H         -52.364471     -142.498779      -45.854500
 H         -50.716545     -145.054504      -43.708492
 C         -53.080273     -142.225021      -46.640945
 C         -52.371525     -142.017731      -47.947369
 C         -54.408291     -141.515167      -46.465275
 C         -53.220852     -142.597488      -49.073662
 C         -55.274773     -141.954041      -47.579426
 C         -54.580700     -141.818359      -48.969414
 H         -51.395912     -142.481308      -48.002567
 H         -52.072971     -140.976364      -48.001888
 H         -54.844635     -141.807785      -45.482098
 H         -54.360798     -140.483582      -46.409073
 H         -53.277863     -143.623383      -48.993973
 H         -52.862347     -142.369141      -50.050995
 H         -56.124413     -141.300659      -47.642612
 H         -55.568138     -142.979340      -47.350311
 H         -55.261616     -142.150253      -49.672958
 H         -54.331417     -140.873413      -49.232758
