20
 generated by VMD
 C          -2.088092       -8.641038       -0.796862
 N          -1.863492       -8.126513        0.140749
 H          -3.166767       -9.402623        2.768951
 H          -1.910805      -10.635524        3.256445
 C          -2.962828      -10.443184        3.180059
 C          -3.574600      -11.454678        2.110107
 C          -3.453191      -10.714954        4.567060
 C          -3.344673      -12.964259        2.602192
 C          -3.318406      -12.156845        4.956448
 C          -3.955464      -13.180046        3.990253
 H          -3.159373      -11.261992        1.137023
 H          -4.670506      -11.338383        2.128668
 H          -2.960390      -10.058098        5.275029
 H          -4.494367      -10.442542        4.668050
 H          -2.261068      -13.212672        2.575629
 H          -3.852843      -13.608089        1.883149
 H          -3.658823      -12.443416        5.960135
 H          -2.232441      -12.466309        4.996835
 H          -3.732158      -14.220182        4.285831
 H          -5.051806      -13.075131        4.066412
