20
 generated by VMD
 C         -41.374302     -102.371132      -34.434303
 N         -41.225800     -101.839516      -35.473495
 H         -39.732826     -104.159462      -32.378948
 H         -41.858543     -102.663490      -33.552441
 C         -38.646748     -104.266792      -31.974958
 C         -37.506020     -103.837181      -32.969448
 C         -38.173954     -105.409340      -30.993660
 C         -36.229008     -103.551254      -32.184826
 C         -36.912884     -104.953270      -30.290325
 C         -35.759022     -104.673546      -31.208702
 H         -37.963375     -103.003426      -33.452831
 H         -37.293392     -104.723953      -33.643997
 H         -38.971409     -105.554932      -30.324482
 H         -37.948483     -106.365746      -31.503531
 H         -36.241699     -102.737015      -31.461771
 H         -35.405155     -103.335480      -32.877048
 H         -36.483589     -105.770088      -29.653849
 H         -37.082325     -104.175652      -29.633780
 H         -34.830460     -104.327850      -30.605871
 H         -35.527130     -105.481422      -31.829016
