20
 generated by VMD
 C         -65.429474     -177.527527      -56.523670
 N         -66.097099     -176.883255      -55.844986
 H         -64.091675     -175.058716      -58.672298
 H         -64.833138     -178.128326      -57.142666
 C         -64.305359     -174.096893      -59.291351
 C         -65.416077     -173.152054      -58.895748
 C         -63.596893     -173.783798      -60.562424
 C         -64.938545     -171.801849      -58.790497
 C         -63.191669     -172.294586      -60.563786
 C         -64.223625     -171.376175      -60.022099
 H         -65.926926     -173.494492      -58.063606
 H         -66.144814     -173.444473      -59.731083
 H         -62.721024     -174.446304      -60.918095
 H         -64.338570     -173.948517      -61.404114
 H         -64.235542     -171.661545      -57.911743
 H         -65.685623     -171.005890      -58.686390
 H         -62.925598     -172.008179      -61.621841
 H         -62.272816     -172.181366      -60.026108
 H         -63.741570     -170.349228      -59.738716
 H         -65.005241     -171.185974      -60.733860
