20
 generated by VMD
 C         -29.671125      -87.908615      -25.081533
 N         -29.013966      -88.659332      -25.620989
 H         -31.400251      -90.059410      -27.802126
 H         -30.186367      -87.216042      -24.425484
 C         -32.364075      -89.664131      -27.518412
 C         -32.661774      -89.575584      -26.070969
 C         -33.512508      -89.505516      -28.489069
 C         -33.446705      -88.313919      -25.767349
 C         -34.136600      -88.070282      -28.231359
 C         -34.609783      -88.039719      -26.749666
 H         -31.751192      -89.784492      -25.451344
 H         -33.317162      -90.455093      -25.613079
 H         -33.106586      -89.644859      -29.529285
 H         -34.065960      -90.399582      -28.247280
 H         -32.913231      -87.321114      -25.905930
 H         -33.922527      -88.381622      -24.824413
 H         -34.993923      -88.031555      -28.933029
 H         -33.471119      -87.200661      -28.350004
 H         -34.985039      -86.990448      -26.537451
 H         -35.587482      -88.492569      -26.657595
