20
 generated by VMD
 C         -22.338209      -52.221035      -11.547661
 N         -22.076828      -52.776440      -10.509302
 H         -19.686226      -52.814331      -14.478486
 H         -22.772388      -51.761375      -12.602896
 C         -18.823126      -52.315395      -13.956910
 C         -17.884998      -51.593418      -14.814269
 C         -18.544085      -52.494354      -12.451451
 C         -16.488251      -52.149933      -14.595020
 C         -17.241991      -51.733696      -12.103443
 C         -16.138538      -52.239258      -13.094302
 H         -17.814617      -50.509010      -14.465707
 H         -18.150402      -51.612843      -15.849894
 H         -19.411116      -52.087448      -11.935143
 H         -18.422056      -53.596920      -12.181540
 H         -15.744184      -51.537216      -15.098938
 H         -16.311178      -53.126453      -15.007372
 H         -16.805695      -51.985222      -11.087350
 H         -17.406313      -50.701042      -12.141396
 H         -15.244467      -51.699760      -12.796603
 H         -15.778060      -53.245693      -12.890812
