20
 generated by VMD
 C         -11.093765      -34.760174       -9.140466
 N         -10.651380      -35.321732       -8.314922
 H         -12.159385      -37.222755       -7.439390
 H         -13.337930      -37.144306       -6.083124
 C         -13.062521      -37.621738       -7.017671
 C         -12.620747      -39.055935       -6.700467
 C         -14.322681      -37.578228       -7.966031
 C         -13.760903      -39.945484       -6.220915
 C         -15.408744      -38.619148       -7.595387
 C         -14.870710      -40.028526       -7.346395
 H         -11.751123      -38.951260       -6.027816
 H         -12.231522      -39.519394       -7.628307
 H         -14.712891      -36.580727       -8.046920
 H         -13.952361      -37.855213       -8.910866
 H         -14.221662      -39.475998       -5.342255
 H         -13.460150      -40.899826       -5.950026
 H         -16.218641      -38.603088       -8.371403
 H         -15.813782      -38.260666       -6.686280
 H         -15.704095      -40.657452       -6.972510
 H         -14.499290      -40.495331       -8.233838
