20
 generated by VMD
 C         -50.732246     -129.178741      -42.857067
 N         -50.311291     -128.276108      -42.255531
 H         -48.457333     -128.007492      -40.090958
 H         -50.818623     -129.992462      -43.571518
 C         -47.491528     -127.663010      -40.634228
 C         -46.294201     -128.517532      -40.071255
 C         -47.200695     -126.267120      -41.109295
 C         -45.110161     -128.418457      -40.967072
 C         -45.992958     -126.248398      -42.060329
 C         -44.786339     -126.994400      -41.379391
 H         -46.488594     -129.641296      -39.988369
 H         -46.001991     -128.104599      -39.134796
 H         -48.066311     -125.785217      -41.673019
 H         -47.173042     -125.766914      -40.224934
 H         -45.120743     -129.085663      -41.880424
 H         -44.171406     -128.941620      -40.586716
 H         -45.535248     -125.303993      -42.306374
 H         -46.110004     -126.812256      -43.014973
 H         -43.961319     -127.115257      -42.033878
 H         -44.417656     -126.501099      -40.493771
