20
 generated by VMD
 C         -79.490891     -206.269089      -74.985443
 N         -79.592720     -206.457153      -73.809792
 H         -78.522583     -206.571060      -71.231689
 H         -79.452225     -205.986130      -76.090561
 C         -77.599319     -206.692078      -70.722626
 C         -76.617195     -205.753418      -71.243477
 C         -77.301048     -207.894089      -69.828644
 C         -75.356262     -205.686218      -70.358566
 C         -75.952454     -207.739319      -69.107323
 C         -74.889648     -207.210388      -70.087814
 H         -76.807510     -204.676605      -71.424492
 H         -76.419762     -206.197678      -72.254128
 H         -78.139374     -208.051208      -69.199516
 H         -77.325294     -208.799286      -70.495033
 H         -75.533554     -205.032700      -69.485863
 H         -74.558418     -205.299011      -71.070702
 H         -75.577347     -208.806152      -68.973770
 H         -75.924110     -207.167648      -68.187500
 H         -73.837494     -207.188263      -69.783371
 H         -75.080978     -207.725662      -71.062317
