20
 generated by VMD
 C         -79.095993     -208.228271      -75.641563
 N         -78.310440     -207.353821      -75.422310
 H         -78.833298     -210.356064      -73.533211
 H         -79.818703     -209.056824      -75.757156
 C         -78.556992     -210.048645      -72.515274
 C         -77.334969     -209.160965      -72.454979
 C         -78.919418     -211.121414      -71.446770
 C         -77.122131     -208.813950      -70.959610
 C         -78.482658     -210.694214      -70.108154
 C         -77.126343     -210.052139      -70.043846
 H         -77.351944     -208.303024      -73.131470
 H         -76.532684     -209.785461      -72.805908
 H         -80.005386     -211.340927      -71.530655
 H         -78.430489     -212.062057      -71.735153
 H         -77.896690     -208.101608      -70.774406
 H         -76.187943     -208.287750      -70.790955
 H         -78.345360     -211.630859      -69.569626
 H         -79.257675     -210.206955      -69.483337
 H         -76.818840     -209.696609      -69.017128
 H         -76.266861     -210.747040      -70.295486
