20
 generated by VMD
 C         -77.335724     -203.459503      -67.349434
 N         -77.996170     -204.392700      -67.029877
 H         -74.892609     -200.853867      -67.622192
 H         -76.729515     -202.587891      -67.640381
 C         -74.526138     -200.393967      -68.483932
 C         -74.897972     -198.962463      -68.706650
 C         -73.914474     -201.230957      -69.691444
 C         -73.884399     -198.240677      -69.426392
 C         -72.802200     -200.375320      -70.358261
 C         -73.295441     -199.018738      -70.720665
 H         -75.099670     -198.590134      -67.692093
 H         -75.741539     -198.956207      -69.284760
 H         -73.606140     -202.232758      -69.370125
 H         -74.794609     -201.422745      -70.325005
 H         -72.980690     -197.998901      -68.809265
 H         -74.323555     -197.291534      -69.863586
 H         -72.665955     -200.899445      -71.325851
 H         -71.812012     -200.335938      -69.891327
 H         -72.462585     -198.400803      -71.242928
 H         -74.078133     -199.117310      -71.426430
