20
 generated by VMD
 C         -59.373508     -151.979767      -49.298904
 N         -58.758675     -152.278015      -50.195709
 H         -56.397106     -150.871841      -48.421329
 H         -59.845009     -151.790390      -48.384369
 C         -55.712276     -150.452148      -49.168621
 C         -54.775730     -151.440948      -49.674713
 C         -55.381763     -149.007538      -49.279282
 C         -54.306934     -150.987839      -51.055481
 C         -54.832123     -148.562683      -50.602646
 C         -53.682281     -149.493896      -50.992287
 H         -55.156242     -152.484695      -49.781002
 H         -54.006428     -151.539612      -48.919056
 H         -56.315704     -148.473145      -49.035000
 H         -54.722534     -148.755264      -48.387947
 H         -55.213566     -150.908218      -51.639412
 H         -53.514053     -151.598648      -51.544033
 H         -54.424126     -147.536438      -50.261917
 H         -55.597729     -148.459061      -51.273121
 H         -53.206303     -149.147171      -51.885300
 H         -52.896175     -149.524155      -50.243038
