20
 generated by VMD
 C         -52.879009     -147.281128      -45.440998
 N         -54.023994     -147.388168      -45.202282
 H         -55.131790     -147.376907      -48.551140
 H         -51.777351     -147.192764      -45.562355
 C         -54.609394     -146.482605      -48.721169
 C         -53.292076     -146.339676      -49.409569
 C         -55.089329     -145.337860      -47.956276
 C         -53.301426     -145.232239      -50.388657
 C         -55.178398     -144.230911      -48.915607
 C         -53.891190     -143.952011      -49.697105
 H         -53.048290     -147.363068      -49.818573
 H         -52.586098     -146.192490      -48.595627
 H         -56.020737     -145.547318      -47.298355
 H         -54.390953     -145.124939      -47.174599
 H         -54.079540     -145.528214      -51.133953
 H         -52.264420     -145.159241      -50.781048
 H         -55.616047     -143.262619      -48.418259
 H         -55.847775     -144.551819      -49.782623
 H         -54.150639     -143.244476      -50.544189
 H         -53.033161     -143.523041      -49.187473
