20
 generated by VMD
 C         -39.231884      -98.970177      -28.025967
 N         -38.647156      -99.944656      -27.697695
 H         -37.071278      -98.824745      -30.448830
 H         -39.905323      -98.216576      -28.308025
 C         -36.336163      -97.970200      -30.734497
 C         -35.737110      -98.255661      -32.099396
 C         -35.615044      -97.505455      -29.542984
 C         -34.444706      -97.603737      -32.334743
 C         -34.420193      -96.528465      -29.997501
 C         -33.595623      -97.338722      -31.014650
 H         -36.400566      -97.814651      -32.832771
 H         -35.683086      -99.389397      -32.282135
 H         -36.231705      -97.011757      -28.797409
 H         -35.204929      -98.493080      -29.091070
 H         -34.742378      -96.610588      -32.847729
 H         -33.759624      -98.020844      -33.053047
 H         -33.885571      -96.175880      -29.122345
 H         -34.854309      -95.574478      -30.485062
 H         -32.718472      -96.659149      -31.199596
 H         -33.208401      -98.251938      -30.651258
