20
 generated by VMD
 C         -61.296497     -156.098083      -54.887836
 N         -60.474697     -155.929352      -55.667648
 H         -59.519817     -156.043076      -51.598331
 H         -62.017673     -156.435501      -54.188358
 C         -58.461758     -156.069763      -51.384510
 C         -57.726086     -154.904037      -50.711514
 C         -57.769703     -157.244125      -52.051620
 C         -56.356525     -155.410477      -50.274769
 C         -56.426468     -157.647278      -51.428970
 C         -55.560059     -156.357559      -51.250324
 H         -58.359459     -154.498108      -49.931236
 H         -57.527534     -154.202606      -51.450096
 H         -58.527122     -158.178818      -52.023331
 H         -57.567459     -157.050781      -53.111656
 H         -56.675381     -155.804092      -49.309166
 H         -55.609520     -154.595093      -49.992397
 H         -55.738224     -158.343674      -51.965313
 H         -56.629391     -158.136765      -50.529518
 H         -54.583805     -156.616669      -50.881889
 H         -55.330460     -155.834442      -52.255463
