20
 generated by VMD
 C         -58.186424     -161.859329      -56.299137
 N         -57.171528     -161.968506      -56.848640
 H         -59.622108     -165.147903      -55.119129
 H         -59.091511     -161.736069      -55.741901
 C         -60.436321     -164.408203      -54.902351
 C         -60.466778     -163.912643      -53.433144
 C         -61.683304     -164.458786      -55.715321
 C         -61.471470     -162.921661      -53.006714
 C         -62.742489     -163.504745      -55.200985
 C         -62.863266     -163.346115      -53.672401
 H         -59.422375     -163.596466      -53.297710
 H         -60.503201     -164.896729      -52.764515
 H         -61.466282     -164.516144      -56.747345
 H         -62.144356     -165.449875      -55.531258
 H         -61.222137     -161.822678      -53.319859
 H         -61.520386     -162.874390      -51.912388
 H         -63.708618     -163.750046      -55.601421
 H         -62.513935     -162.493561      -55.744446
 H         -63.596306     -162.452560      -53.439251
 H         -63.195484     -164.301102      -53.174927
