20
 generated by VMD
 C         -50.709705     -129.279449      -43.020363
 N         -50.261772     -128.315018      -42.516361
 H         -48.396935     -128.053772      -40.419018
 H         -50.997284     -130.103439      -43.657238
 C         -47.431370     -127.725800      -40.509388
 C         -46.368134     -128.597519      -39.929890
 C         -47.202713     -126.310089      -41.088589
 C         -45.235786     -128.671844      -41.018707
 C         -46.078186     -126.345825      -42.050465
 C         -44.890667     -127.185692      -41.529716
 H         -46.577774     -129.569321      -39.633446
 H         -45.970310     -128.078934      -39.039360
 H         -48.144150     -125.902504      -41.451691
 H         -47.159451     -125.621208      -40.164097
 H         -45.544277     -129.189575      -41.878040
 H         -44.351864     -129.035370      -40.564400
 H         -45.555817     -125.418015      -42.093857
 H         -46.307743     -126.788712      -42.982788
 H         -44.009827     -127.192436      -42.267197
 H         -44.504372     -126.760406      -40.588970
