20
 generated by VMD
 C         -49.174309     -127.164062      -39.630100
 N         -50.310966     -127.260757      -39.472504
 H         -46.835506     -127.173874      -42.634579
 H         -48.108688     -127.081718      -39.909458
 C         -46.431152     -126.511086      -41.840519
 C         -45.337051     -126.987419      -40.891598
 C         -46.547581     -124.913979      -41.993973
 C         -44.295326     -125.930145      -40.379681
 C         -45.442856     -124.054657      -41.456440
 C         -44.915104     -124.590584      -40.219799
 H         -44.871208     -127.914848      -41.210964
 H         -45.736485     -127.297668      -39.886696
 H         -46.812893     -124.684578      -43.082973
 H         -47.442574     -124.649063      -41.467560
 H         -43.417839     -125.953316      -41.074955
 H         -43.889557     -126.246101      -39.389343
 H         -45.865570     -123.054939      -41.477692
 H         -44.743366     -123.851921      -42.221367
 H         -44.153805     -123.859062      -39.791874
 H         -45.733162     -124.611282      -39.531887
