20
 generated by VMD
 C         -50.717110     -129.565643      -45.820557
 N         -51.039665     -130.593979      -45.285030
 H         -48.636681     -131.096466      -44.060555
 H         -50.315334     -128.656387      -46.334595
 C         -48.129589     -131.116425      -43.016182
 C         -48.357338     -132.492676      -42.330517
 C         -47.911381     -129.887573      -42.237812
 C         -47.300133     -132.587952      -41.219135
 C         -46.962051     -130.151657      -41.178272
 C         -47.236790     -131.361053      -40.351349
 H         -48.254936     -133.327271      -43.155750
 H         -49.386341     -132.552750      -42.021580
 H         -47.521351     -129.148422      -42.940918
 H         -48.931889     -129.497726      -41.721825
 H         -46.317101     -132.847153      -41.612480
 H         -47.535351     -133.511261      -40.714420
 H         -46.903679     -129.194183      -40.509609
 H         -45.965294     -130.317169      -41.552292
 H         -46.452282     -131.556290      -39.600021
 H         -48.194656     -131.170776      -39.780449
