20
 generated by VMD
 C          -9.965055      -36.380844       -7.144746
 N         -10.158916      -36.705276       -8.176431
 H         -13.389231      -38.066216       -8.028632
 H         -14.586226      -38.540188       -6.761361
 C         -14.166909      -38.865273       -7.755814
 C         -13.520971      -40.227123       -7.549346
 C         -15.316632      -38.813011       -8.789025
 C         -14.489342      -41.381535       -7.482175
 C         -16.320322      -39.896690       -8.490002
 C         -15.628520      -41.303455       -8.564809
 H         -12.863555      -40.259605       -6.663114
 H         -12.862788      -40.305580       -8.420384
 H         -15.855478      -37.829517       -8.833344
 H         -14.872638      -39.000935       -9.761129
 H         -14.920936      -41.430492       -6.480881
 H         -13.960486      -42.332329       -7.578465
 H         -17.145979      -39.922779       -9.224335
 H         -16.711756      -39.840809       -7.481635
 H         -16.437798      -42.091545       -8.391683
 H         -15.239577      -41.440388       -9.592175
