20
 generated by VMD
 C         -50.652042     -129.008530      -42.534084
 N         -51.097450     -128.163834      -41.906910
 H         -48.288479     -128.070023      -40.835060
 H         -50.351410     -129.805084      -43.218945
 C         -47.281635     -127.724838      -40.812737
 C         -46.049015     -128.181259      -40.107327
 C         -47.072006     -126.207817      -41.129589
 C         -44.829292     -128.007111      -40.933048
 C         -45.721184     -125.914177      -41.898071
 C         -44.537815     -126.539772      -41.273350
 H         -46.025745     -129.211639      -39.890274
 H         -45.796555     -127.567413      -39.187180
 H         -47.856415     -125.832481      -41.725742
 H         -46.981541     -125.621414      -40.251110
 H         -44.703041     -128.679718      -41.767117
 H         -44.005688     -128.344208      -40.370617
 H         -45.492592     -124.826500      -42.178612
 H         -45.748779     -126.390602      -42.928875
 H         -43.646835     -126.525589      -41.916565
 H         -44.125359     -126.036018      -40.401402
