20
 generated by VMD
 C         -31.488052      -77.833435      -26.403879
 N         -31.718819      -77.993576      -27.564253
 H         -29.525703      -78.941856      -23.475704
 H         -31.120033      -77.723114      -25.437975
 C         -28.978437      -79.838860      -22.989298
 C         -27.523533      -80.111832      -23.091204
 C         -29.906803      -81.028427      -22.904812
 C         -27.125753      -80.915695      -21.847630
 C         -29.464809      -81.799812      -21.692394
 C         -27.993530      -82.078018      -21.648600
 H         -27.082819      -79.028503      -23.137426
 H         -27.268673      -80.731934      -24.026644
 H         -30.911190      -80.611801      -22.619007
 H         -29.940933      -81.657234      -23.745516
 H         -27.309322      -80.376541      -20.936207
 H         -26.069992      -81.217812      -21.843151
 H         -30.008993      -82.763649      -21.566772
 H         -29.683380      -81.281372      -20.823572
 H         -27.604115      -82.504822      -20.704834
 H         -27.779692      -82.940338      -22.418991
