20
 generated by VMD
 C         -49.563892     -131.780121      -46.461018
 N         -50.221767     -132.450455      -47.242203
 H         -47.663303     -133.596664      -44.414909
 H         -48.878784     -131.373566      -45.721981
 C         -48.528210     -133.905289      -43.786633
 C         -49.181965     -135.220673      -43.972775
 C         -49.104820     -132.922943      -42.815701
 C         -49.613155     -135.872147      -42.704254
 C         -49.559734     -133.687897      -41.466354
 C         -50.435860     -134.895981      -41.764286
 H         -48.543377     -135.932083      -44.603230
 H         -50.067368     -135.073685      -44.533279
 H         -48.208153     -132.207153      -42.463612
 H         -49.890129     -132.291977      -43.228237
 H         -48.824463     -136.193329      -42.036854
 H         -50.312199     -136.676193      -42.862156
 H         -50.047199     -133.039398      -40.832626
 H         -48.696541     -133.951401      -40.821365
 H         -50.646080     -135.338501      -40.826000
 H         -51.322960     -134.536133      -42.134052
