20
 generated by VMD
 C         -31.703329      -78.930534      -26.499617
 N         -31.008083      -78.076744      -26.823397
 H         -28.892536      -80.758072      -25.152477
 H         -32.335918      -79.547333      -25.999014
 C         -28.859142      -81.140068      -24.107958
 C         -27.610138      -81.118004      -23.344852
 C         -29.870646      -82.171013      -23.822147
 C         -27.974573      -81.120476      -21.804413
 C         -30.291609      -82.220810      -22.300552
 C         -28.924171      -82.324699      -21.531157
 H         -27.034006      -80.152138      -23.474379
 H         -26.884165      -81.952644      -23.514273
 H         -30.708448      -81.964012      -24.448311
 H         -29.579248      -83.208549      -24.078323
 H         -28.295845      -80.214462      -21.375013
 H         -26.996016      -81.358200      -21.297546
 H         -31.034334      -83.076660      -22.168837
 H         -30.686033      -81.360825      -21.888638
 H         -29.027327      -82.472984      -20.436323
 H         -28.361977      -83.252434      -21.871109
