20
 generated by VMD
 C         -68.487656     -185.318115      -66.947960
 N         -67.715767     -186.182327      -66.985466
 H         -69.897987     -184.552505      -64.341393
 H         -69.144180     -184.459366      -66.753609
 C         -69.663834     -185.080032      -63.465458
 C         -70.798096     -185.153198      -62.517197
 C         -68.278275     -185.693314      -63.175243
 C         -70.372208     -185.386246      -61.102383
 C         -68.177101     -186.384003      -61.767487
 C         -69.556541     -186.670685      -61.001026
 H         -71.396919     -185.989792      -62.853680
 H         -71.405441     -184.191528      -62.518841
 H         -68.132149     -186.241425      -64.014420
 H         -67.569771     -184.857513      -63.103348
 H         -71.191811     -185.583435      -60.393421
 H         -69.847397     -184.469681      -60.656216
 H         -67.565811     -185.750214      -61.116779
 H         -67.684891     -187.330002      -61.810524
 H         -69.992867     -187.345734      -61.732731
 H         -69.363052     -186.907791      -59.978012
