20
 generated by VMD
 C         -48.504154     -135.848526      -46.201603
 N         -47.534351     -136.185654      -45.568344
 H         -51.809483     -135.175095      -46.200230
 H         -49.537273     -135.507568      -46.504017
 C         -51.732033     -135.953201      -45.422318
 C         -52.373653     -137.200729      -45.839085
 C         -51.178738     -135.840759      -43.954746
 C         -51.765217     -138.516815      -45.243050
 C         -50.730545     -137.154465      -43.314278
 C         -51.463768     -138.375748      -43.680244
 H         -52.199951     -137.304428      -46.879341
 H         -53.488338     -137.026779      -45.656937
 H         -50.323208     -135.105225      -44.056454
 H         -51.971252     -135.302322      -43.416016
 H         -50.916267     -138.951065      -45.701004
 H         -52.475132     -139.325516      -45.391315
 H         -50.670795     -137.099579      -42.294140
 H         -49.673222     -137.348495      -43.637592
 H         -50.743740     -139.325150      -43.345089
 H         -52.423180     -138.412521      -43.153477
