20
 generated by VMD
 C          -2.551001       -8.691020       -0.324879
 N          -1.464283       -8.558173       -0.310921
 H          -3.181721       -9.745122        2.860923
 H          -1.931506      -10.838241        3.417049
 C          -2.978837      -10.720099        3.173967
 C          -3.236732      -11.731717        2.008040
 C          -3.784691      -10.987603        4.450539
 C          -3.329335      -13.141850        2.554472
 C          -3.759072      -12.427636        4.842349
 C          -4.245188      -13.281882        3.727123
 H          -2.359497      -11.688899        1.387763
 H          -4.088992      -11.381241        1.444088
 H          -3.406805      -10.367509        5.270877
 H          -4.795664      -10.664258        4.435818
 H          -2.303615      -13.361096        2.837385
 H          -3.531891      -13.749786        1.713552
 H          -4.388607      -12.598382        5.756479
 H          -2.709894      -12.685213        5.197106
 H          -4.172897      -14.346350        4.076844
 H          -5.288319      -13.165820        3.394013
