20
 generated by VMD
 C         -70.762146     -181.758804      -64.049927
 N         -69.863785     -182.471024      -63.744495
 H         -68.750488     -180.987900      -61.395615
 H         -71.582878     -181.154297      -64.419739
 C         -67.711754     -180.721664      -61.109673
 C         -66.824608     -181.868271      -60.599117
 C         -67.357742     -179.392883      -60.655285
 C         -65.325455     -181.481400      -60.902046
 C         -65.802635     -179.025711      -60.727173
 C         -64.926079     -180.172241      -60.269844
 H         -67.224525     -182.794510      -61.095154
 H         -66.907646     -181.972809      -59.550812
 H         -67.979530     -178.640076      -61.205338
 H         -67.531410     -179.394379      -59.606941
 H         -65.198746     -181.373138      -62.019127
 H         -64.681007     -182.368073      -60.687737
 H         -65.656219     -178.182922      -60.028759
 H         -65.514481     -178.672775      -61.717014
 H         -63.891586     -179.921417      -60.769573
 H         -64.736412     -180.254501      -59.208225
