20
 generated by VMD
 C         -20.598364      -64.545036      -17.133011
 N         -20.091415      -65.000771      -16.214775
 H         -24.058764      -63.494549      -17.610865
 H         -21.011703      -64.439217      -18.229254
 C         -24.486668      -64.454971      -18.015503
 C         -24.735191      -64.800537      -19.444170
 C         -24.999477      -65.387657      -16.894682
 C         -24.535816      -66.345573      -19.717718
 C         -24.747892      -66.888985      -17.376408
 C         -25.411791      -67.172501      -18.742903
 H         -23.966129      -64.150208      -19.908758
 H         -25.609821      -64.541176      -19.958370
 H         -24.333778      -65.309654      -15.982202
 H         -26.051588      -65.241341      -16.789270
 H         -23.468271      -66.622314      -19.569912
 H         -24.751396      -66.674797      -20.755344
 H         -25.247549      -67.569374      -16.725809
 H         -23.697258      -67.152351      -17.363289
 H         -25.436964      -68.231476      -18.942137
 H         -26.382977      -66.721573      -18.722256
