20
 generated by VMD
 C         -10.469219      -35.857628       -9.050121
 N         -10.164405      -34.859310       -8.703606
 H         -13.078197      -36.967030       -6.812010
 H         -14.236972      -37.594299       -5.682363
 C         -13.740026      -37.773403       -6.645285
 C         -13.003797      -39.092552       -6.595987
 C         -14.803504      -37.735134       -7.818757
 C         -13.867713      -40.361759       -6.577646
 C         -15.653516      -39.102028       -7.833297
 C         -14.767175      -40.322956       -7.820023
 H         -12.337402      -39.131805       -5.712884
 H         -12.395132      -39.121914       -7.540424
 H         -15.478599      -36.938076       -7.748496
 H         -14.221618      -37.761505       -8.747243
 H         -14.479457      -40.288486       -5.697042
 H         -13.220844      -41.235836       -6.631227
 H         -16.286139      -39.133129       -8.692390
 H         -16.323591      -39.151546       -6.934154
 H         -15.407972      -41.185547       -7.819763
 H         -14.154159      -40.397198       -8.719179
