20
 generated by VMD
 C         -25.620991      -71.242981      -17.102440
 N         -25.408930      -71.228539      -15.978503
 H         -24.175436      -68.993385      -18.532829
 H         -25.616472      -71.260468      -18.191101
 C         -24.637764      -69.026535      -19.540119
 C         -23.842478      -69.899445      -20.607302
 C         -25.857479      -68.298660      -19.890266
 C         -24.851410      -70.927895      -21.256945
 C         -26.722380      -69.274170      -20.571571
 C         -26.047651      -70.040291      -21.764301
 H         -23.096878      -70.444641      -20.097855
 H         -23.515059      -69.343956      -21.511574
 H         -26.244247      -67.865921      -18.976128
 H         -25.595825      -67.344215      -20.398920
 H         -25.232687      -71.499710      -20.340990
 H         -24.510429      -71.553123      -22.068985
 H         -27.730362      -68.848549      -20.878426
 H         -27.065170      -69.977310      -19.724947
 H         -26.843456      -70.607559      -22.280907
 H         -25.942965      -69.185097      -22.445587
