20
 generated by VMD
 C         -12.008204      -31.534290       -8.371363
 N         -12.161489      -30.640482       -7.696811
 H         -11.315150      -35.000126       -7.873914
 H         -12.587120      -33.938927       -7.122901
 C         -11.712992      -34.695889       -6.904866
 C         -10.631299      -34.030701       -6.002666
 C         -12.256015      -36.046581       -6.337389
 C         -11.276208      -33.950230       -4.568733
 C         -12.735316      -35.940407       -4.871768
 C         -11.656060      -35.333553       -3.988726
 H         -10.538321      -33.017200       -6.453096
 H          -9.687861      -34.601990       -6.025735
 H         -13.162786      -36.290726       -6.938531
 H         -11.533096      -36.866348       -6.472235
 H         -12.155491      -33.322281       -4.659206
 H         -10.540446      -33.552280       -3.861615
 H         -12.965177      -36.955524       -4.490869
 H         -13.660104      -35.355579       -4.797663
 H         -12.098018      -35.180576       -2.968281
 H         -10.807711      -35.941113       -3.829948
