20
 generated by VMD
 C         -30.673637      -92.809509      -26.262392
 N         -30.990265      -92.523888      -25.207355
 H         -32.451542      -90.401886      -26.582676
 H         -30.279793      -92.991516      -27.273214
 C         -33.326866      -90.537445      -27.239389
 C         -34.100121      -91.830978      -27.198154
 C         -33.143211      -89.712822      -28.529325
 C         -35.420334      -91.796852      -28.004999
 C         -34.500370      -89.712303      -29.227535
 C         -35.087170      -91.159805      -29.319136
 H         -34.512806      -92.052216      -26.238586
 H         -33.583496      -92.709610      -27.360903
 H         -32.795509      -88.717567      -28.258802
 H         -32.386185      -90.216805      -29.059240
 H         -36.245941      -91.452377      -27.423294
 H         -35.654160      -92.878143      -28.298954
 H         -34.271225      -89.326004      -30.261221
 H         -35.287598      -88.993217      -28.871883
 H         -36.075142      -91.158752      -29.908327
 H         -34.399555      -91.802109      -29.986546
