20
 generated by VMD
 C         -13.935148      -29.105013       -7.389373
 N         -13.377913      -29.028240       -8.357457
 H         -11.571548      -30.466423       -4.843246
 H         -10.107353      -30.031595       -3.826011
 C         -10.698112      -30.821453       -4.358112
 C          -9.887772      -31.474316       -5.495810
 C         -11.078028      -31.916090       -3.329261
 C          -8.700994      -32.202003       -4.903090
 C          -9.898646      -32.762825       -2.751731
 C          -9.146840      -33.298332       -3.991741
 H          -9.502414      -30.631216       -6.158834
 H         -10.438368      -32.078667       -6.164616
 H         -11.544009      -31.382072       -2.522911
 H         -11.816827      -32.588173       -3.782861
 H          -8.062016      -31.519655       -4.382633
 H          -8.200045      -32.579575       -5.793457
 H         -10.228307      -33.617058       -2.157164
 H          -9.305597      -32.085541       -2.066786
 H          -8.233642      -33.780163       -3.677912
 H          -9.869723      -33.970348       -4.528662
