20
 generated by VMD
 C         -13.348191      -30.925827       -8.288141
 N         -12.998033      -30.047430       -8.884153
 H         -11.417891      -32.089149       -6.300413
 H         -11.770272      -32.163506       -4.627743
 C         -11.303600      -32.710472       -5.463999
 C          -9.878076      -33.123104       -5.195450
 C         -12.153123      -33.963364       -5.705345
 C          -9.680830      -33.989185       -3.983318
 C         -12.002841      -34.881996       -4.444356
 C         -10.547220      -35.173180       -4.039207
 H          -9.288703      -32.202206       -5.059564
 H          -9.411193      -33.607330       -6.076811
 H         -13.211604      -33.775185       -5.807562
 H         -11.869511      -34.512535       -6.607664
 H          -9.831710      -33.282295       -3.112921
 H          -8.613199      -34.291092       -3.822951
 H         -12.503472      -35.808487       -4.542508
 H         -12.615084      -34.356022       -3.640637
 H         -10.512269      -35.691566       -3.085915
 H         -10.177094      -35.857910       -4.854255
