20
 generated by VMD
 C         -11.485717      -41.945606       -6.139070
 N         -10.952263      -41.346985       -6.899106
 H         -14.549445      -41.012646       -8.500795
 H         -15.502775      -40.404133       -9.758567
 C         -15.278179      -41.401943       -9.234052
 C         -16.577879      -41.965153       -8.675422
 C         -14.583890      -42.330627      -10.154915
 C         -17.507442      -42.478687       -9.835495
 C         -15.537593      -42.956642      -11.194143
 C         -16.775827      -43.553341      -10.549900
 H         -17.138783      -41.096367       -8.195949
 H         -16.354017      -42.799858       -7.947021
 H         -13.817683      -41.822762      -10.755247
 H         -14.122574      -43.196682       -9.607491
 H         -17.756989      -41.685593      -10.523329
 H         -18.433186      -42.794212       -9.370239
 H         -15.015961      -43.712440      -11.865801
 H         -15.795664      -42.193817      -11.868727
 H         -17.479931      -43.964890      -11.265614
 H         -16.489933      -44.384377       -9.952045
