20
 generated by VMD
 C         -47.606869     -136.673813      -45.904873
 N         -46.982712     -136.159927      -46.792999
 H         -50.927261     -135.650833      -45.681053
 H         -48.222961     -137.173843      -45.131310
 C         -51.320011     -136.498581      -45.209618
 C         -51.958538     -137.531113      -46.122440
 C         -51.957794     -136.423996      -43.903675
 C         -52.046631     -138.913773      -45.432533
 C         -51.988285     -137.821732      -43.228920
 C         -52.732109     -138.775360      -44.070774
 H         -51.306259     -137.616959      -46.947987
 H         -52.990829     -137.197357      -46.452374
 H         -51.373528     -135.832291      -43.189026
 H         -53.036945     -136.072845      -43.947495
 H         -50.963573     -139.136429      -45.328995
 H         -52.451588     -139.732788      -46.045864
 H         -52.551304     -137.691269      -42.358803
 H         -50.886406     -138.105682      -42.907864
 H         -52.475182     -139.836380      -43.633373
 H         -53.767818     -138.441391      -44.229797
