20
 generated by VMD
 C         -49.274246     -132.656586      -46.946125
 N         -50.187843     -131.852829      -47.110336
 H         -47.573925     -134.335678      -44.308601
 H         -48.729671     -133.579102      -46.861172
 C         -48.496395     -134.533005      -43.707821
 C         -49.057205     -135.893372      -43.827221
 C         -49.361832     -133.498627      -43.050392
 C         -49.951721     -136.363998      -42.653709
 C         -50.166336     -134.036026      -41.875072
 C         -50.953690     -135.297302      -42.246288
 H         -48.280174     -136.648697      -44.027431
 H         -49.706860     -135.853836      -44.779274
 H         -48.710110     -132.767685      -42.635021
 H         -49.998306     -132.902542      -43.738987
 H         -49.194397     -136.553497      -41.844196
 H         -50.464867     -137.270065      -42.978569
 H         -50.774227     -133.170761      -41.547520
 H         -49.517410     -134.231110      -41.008148
 H         -51.593933     -135.521790      -41.374554
 H         -51.621815     -135.101990      -43.048412
