20
 generated by VMD
 C         -32.294903      -93.675247      -25.311712
 N         -33.084373      -94.470383      -25.528305
 H         -33.966835      -94.945580      -28.688160
 H         -31.419508      -92.989105      -25.139959
 C         -34.342052      -94.038521      -29.053909
 C         -35.658905      -93.645576      -28.550615
 C         -33.537251      -93.405746      -30.238646
 C         -35.468155      -92.172318      -28.268148
 C         -33.548203      -91.950432      -30.007523
 C         -34.879726      -91.359825      -29.559250
 H         -35.897228      -94.112755      -27.638952
 H         -36.518242      -93.670074      -29.220860
 H         -32.568745      -93.870911      -30.360365
 H         -34.149002      -93.661072      -31.121008
 H         -34.775928      -91.892181      -27.440878
 H         -36.415504      -91.799606      -27.983343
 H         -33.144135      -91.436111      -30.916029
 H         -32.813381      -91.839020      -29.185472
 H         -34.878124      -90.325310      -29.421162
 H         -35.500546      -91.370651      -30.453159
