20
 generated by VMD
 C         -31.723190      -78.833000      -26.471327
 N         -31.045996      -78.003914      -26.962734
 H         -28.669977      -80.644012      -25.178135
 H         -32.380100      -79.468590      -25.770296
 C         -28.852356      -81.077606      -24.108084
 C         -27.674194      -80.931770      -23.226898
 C         -29.958498      -81.960083      -23.726810
 C         -27.820930      -81.090149      -21.785208
 C         -30.098347      -82.172394      -22.201715
 C         -28.766834      -82.369446      -21.470150
 H         -27.335182      -79.914009      -23.511053
 H         -27.040661      -81.675011      -23.602566
 H         -30.995617      -81.536240      -24.106298
 H         -29.793674      -82.916443      -24.223751
 H         -28.173107      -80.139435      -21.295010
 H         -26.858492      -81.267197      -21.347588
 H         -30.738096      -83.084885      -21.931253
 H         -30.733784      -81.283470      -21.898741
 H         -28.769030      -82.731918      -20.446739
 H         -28.306992      -83.304100      -21.913483
