20
 generated by VMD
 C         -70.315605     -181.267441      -62.606010
 N         -70.868698     -180.301315      -62.953773
 H         -66.493576     -181.345291      -61.629784
 H         -69.816864     -182.191467      -62.342621
 C         -66.343102     -180.844055      -60.625782
 C         -64.931396     -180.857864      -60.148571
 C         -67.228180     -179.723221      -60.471527
 C         -64.328186     -179.562927      -60.846550
 C         -66.537445     -178.400391      -60.901001
 C         -65.124260     -178.248108      -60.493290
 H         -64.309036     -181.736313      -60.513855
 H         -64.968567     -180.637817      -59.002567
 H         -68.112869     -179.957535      -61.042099
 H         -67.560249     -179.708008      -59.417656
 H         -64.143112     -179.560287      -61.880135
 H         -63.359962     -179.423996      -60.466858
 H         -67.153786     -177.591522      -60.410282
 H         -66.682724     -178.364960      -62.012474
 H         -64.622650     -177.462540      -61.084534
 H         -65.015411     -177.945114      -59.431705
