20
 generated by VMD
 C         -21.496069      -65.490425      -17.160196
 N         -20.773994      -65.851707      -16.292219
 H         -24.183638      -63.635220      -18.027225
 H         -22.110407      -64.923302      -18.027933
 C         -24.438133      -64.676170      -18.256855
 C         -24.536310      -65.095268      -19.696583
 C         -25.194555      -65.575798      -17.228113
 C         -24.295229      -66.621307      -19.785368
 C         -24.874205      -67.028755      -17.449072
 C         -25.155470      -67.432655      -18.845722
 H         -23.661140      -64.554527      -20.310980
 H         -25.460007      -64.918701      -20.213820
 H         -24.791414      -65.415375      -16.328335
 H         -26.225386      -65.340622      -17.206587
 H         -23.180956      -66.825325      -19.715599
 H         -24.615543      -66.839745      -20.818993
 H         -25.585733      -67.674110      -16.876572
 H         -23.849314      -67.224442      -17.042477
 H         -25.060482      -68.567696      -18.903507
 H         -26.243841      -67.272339      -19.011005
