20
 generated by VMD
 C          -2.273285       -8.574834        0.292473
 N          -1.757384       -8.994797       -0.642243
 H          -2.738969       -9.966835        2.648683
 H          -1.916080      -11.233310        3.672874
 C          -2.843941      -10.975852        3.140072
 C          -3.075416      -11.960609        2.047067
 C          -4.000926      -11.084561        4.158433
 C          -3.268952      -13.416554        2.470883
 C          -4.200103      -12.466856        4.657507
 C          -4.364992      -13.481892        3.576533
 H          -2.259136      -11.884146        1.332184
 H          -4.007875      -11.652269        1.523357
 H          -3.834493      -10.388212        4.962850
 H          -4.880247      -10.676130        3.682381
 H          -2.344901      -13.927375        2.793360
 H          -3.709750      -13.971804        1.645101
 H          -5.084935      -12.385660        5.265293
 H          -3.410401      -12.765515        5.352719
 H          -4.399678      -14.524373        4.004432
 H          -5.331318      -13.404467        3.043301
