20
 generated by VMD
 C          -1.850126      -13.044385        0.508709
 N          -1.547731      -13.677467        1.384811
 H          -3.468388      -15.700624        1.637186
 H          -4.142758      -15.438725        0.064838
 C          -4.351984      -15.848313        1.051794
 C          -5.473129      -15.092166        1.674978
 C          -4.821651      -17.342630        0.963462
 C          -6.756048      -15.163576        0.881577
 C          -6.111987      -17.526684        0.141493
 C          -7.199877      -16.638325        0.734066
 H          -5.162717      -14.036219        1.854595
 H          -5.626254      -15.477190        2.671925
 H          -4.006956      -18.012060        0.483765
 H          -5.018357      -17.699211        2.030341
 H          -6.596229      -14.704170       -0.100846
 H          -7.592960      -14.653008        1.401076
 H          -6.509541      -18.562922        0.182380
 H          -5.924339      -17.208431       -0.912308
 H          -8.091635      -16.723692        0.124486
 H          -7.458964      -16.983341        1.749144
