20
 generated by VMD
 C         -50.277966     -129.380264      -43.117935
 N         -50.563522     -128.307800      -43.402966
 H         -48.507675     -128.097336      -39.848755
 H         -50.186714     -130.386566      -42.736111
 C         -47.562637     -127.940308      -40.342472
 C         -46.435928     -128.895340      -39.920296
 C         -47.277657     -126.605087      -41.019173
 C         -45.509415     -129.095413      -41.082592
 C         -46.256271     -126.810043      -42.173309
 C         -45.135475     -127.659637      -41.528221
 H         -46.752224     -129.785767      -39.399460
 H         -45.963131     -128.285324      -39.092400
 H         -48.072681     -126.094276      -41.384480
 H         -46.880241     -125.829796      -40.264648
 H         -46.111916     -129.537964      -41.958061
 H         -44.585094     -129.596100      -40.634769
 H         -45.829044     -125.830032      -42.451576
 H         -46.782185     -127.309967      -42.997154
 H         -44.309799     -127.821198      -42.276413
 H         -44.630291     -127.153671      -40.630470
