20
 generated by VMD
 C         -48.520626     -135.810684      -46.148308
 N         -47.655014     -136.173477      -45.517971
 H         -52.126881     -135.145050      -45.875351
 H         -49.244762     -135.534378      -46.877750
 C         -51.620911     -135.981232      -45.373127
 C         -52.417553     -137.220230      -45.757484
 C         -51.177986     -135.770691      -43.975536
 C         -51.790730     -138.447296      -45.230885
 C         -50.568886     -137.033829      -43.341785
 C         -51.350189     -138.296219      -43.752548
 H         -52.569576     -137.226578      -46.804523
 H         -53.431526     -137.147827      -45.216381
 H         -50.484917     -134.880600      -44.028797
 H         -52.079903     -135.385956      -43.477417
 H         -50.902210     -138.637665      -45.798317
 H         -52.296249     -139.384689      -45.359161
 H         -50.738903     -136.913330      -42.341335
 H         -49.466030     -137.223145      -43.413116
 H         -50.651031     -139.237579      -43.593243
 H         -52.269550     -138.287567      -43.170277
