20
 generated by VMD
 C         -80.046532     -206.835907      -74.020302
 N         -80.553444     -207.050232      -75.063446
 H         -77.005447     -206.890808      -72.806320
 H         -79.410385     -206.762299      -73.131500
 C         -76.633087     -207.426575      -71.999962
 C         -75.311462     -207.203186      -71.436089
 C         -77.306892     -208.713455      -71.407310
 C         -75.493729     -206.894653      -69.956985
 C         -77.668396     -208.436218      -69.883484
 C         -76.347549     -207.976578      -69.185738
 H         -74.919136     -206.414246      -72.043556
 H         -74.639915     -208.040634      -71.382721
 H         -78.287621     -208.814117      -71.957977
 H         -76.713440     -209.605087      -71.582291
 H         -75.922081     -205.841522      -69.828705
 H         -74.593216     -206.815582      -69.342346
 H         -78.094315     -209.334579      -69.324371
 H         -78.465607     -207.654968      -69.894806
 H         -76.526703     -207.841309      -68.160339
 H         -75.719536     -208.891663      -69.354576
