20
 generated by VMD
 C         -40.088676     -100.890327      -30.964104
 N         -40.394382      -99.909065      -31.536217
 H         -37.331219     -103.178406      -31.088268
 H         -39.629871     -101.638176      -30.228821
 C         -36.765873     -102.296272      -31.273708
 C         -36.303104     -101.613441      -32.577068
 C         -35.964249     -101.925598      -30.056061
 C         -36.180904     -100.053772      -32.437408
 C         -35.790077     -100.376457      -30.004105
 C         -35.203186      -99.776817      -31.371403
 H         -36.825184     -101.785858      -33.503227
 H         -35.286732     -102.021347      -32.835434
 H         -36.546242     -102.201042      -29.130030
 H         -34.973709     -102.268776      -30.085159
 H         -37.160889      -99.609940      -32.315643
 H         -35.832165      -99.629616      -33.387508
 H         -35.016922     -100.116348      -29.269470
 H         -36.718788      -99.859352      -29.712587
 H         -34.983219      -98.713577      -31.388380
 H         -34.254185     -100.329391      -31.510084
