20
 generated by VMD
 C         -39.459961     -105.546387      -37.141624
 N         -40.600277     -105.828651      -37.201565
 H         -39.288918     -107.682022      -35.018982
 H         -38.428139     -105.504868      -36.877190
 C         -39.312275     -108.569244      -34.370243
 C         -38.325611     -108.755936      -33.243763
 C         -40.793098     -109.356766      -34.326302
 C         -38.989052     -108.881767      -31.887968
 C         -41.261559     -109.369804      -32.914761
 C         -40.186142     -109.846786      -31.894871
 H         -37.602306     -107.833122      -33.187130
 H         -37.634449     -109.601715      -33.490696
 H         -41.589420     -108.863770      -34.952301
 H         -40.522846     -110.290047      -34.787163
 H         -39.222500     -107.983131      -31.313101
 H         -38.279987     -109.491219      -31.224434
 H         -41.967247     -110.217934      -32.937115
 H         -41.626900     -108.413162      -32.592251
 H         -40.742676     -109.954468      -30.835590
 H         -39.907249     -110.826073      -32.167290
