20
 generated by VMD
 C         -69.174179     -194.292465      -64.646935
 N         -68.393021     -193.915985      -65.431847
 H         -71.052040     -194.081207      -67.695274
 H         -69.923546     -194.743851      -63.938614
 C         -71.907433     -193.564987      -67.183075
 C         -71.579475     -192.246536      -66.642982
 C         -73.317917     -194.031631      -67.226364
 C         -72.553940     -191.720261      -65.532310
 C         -74.317284     -192.962509      -66.823265
 C         -73.961723     -192.353119      -65.531189
 H         -71.615044     -191.501328      -67.382553
 H         -70.481781     -192.082687      -66.257729
 H         -73.532600     -194.332733      -68.208443
 H         -73.317062     -195.008392      -66.712563
 H         -72.734985     -190.577789      -65.621185
 H         -72.145836     -191.751709      -64.508102
 H         -75.364983     -193.270721      -66.731934
 H         -74.301971     -192.214401      -67.632866
 H         -74.662086     -191.639877      -65.277260
 H         -74.014572     -193.113281      -64.591644
