20
 generated by VMD
 C         -22.601187      -52.289730      -11.709223
 N         -22.336090      -52.686810      -10.604467
 H         -19.893105      -52.538429      -14.142206
 H         -22.712042      -51.794109      -12.847399
 C         -18.896191      -52.295887      -13.855684
 C         -17.896091      -51.714066      -14.873898
 C         -18.401373      -52.988205      -12.619443
 C         -16.511606      -52.232864      -14.611897
 C         -17.227947      -52.231621      -12.069649
 C         -16.102161      -52.140976      -13.125860
 H         -17.992638      -50.559738      -14.786190
 H         -18.195185      -51.997917      -15.892743
 H         -19.159393      -53.043018      -11.865619
 H         -18.140436      -54.037716      -12.894380
 H         -15.702618      -51.791958      -15.190449
 H         -16.481388      -53.281628      -14.907022
 H         -16.928747      -52.934086      -11.199958
 H         -17.416601      -51.249706      -11.610218
 H         -15.581846      -51.158726      -13.094867
 H         -15.275864      -52.820938      -12.821124
