20
 generated by VMD
 C         -22.679340      -55.502666      -16.517368
 N         -23.330690      -54.649261      -15.962557
 H         -18.955843      -55.255795      -15.235374
 H         -21.966700      -56.440369      -16.859665
 C         -19.368029      -56.270355      -15.005486
 C         -20.487616      -56.359165      -13.872665
 C         -18.438255      -57.429657      -15.156627
 C         -20.817612      -57.760788      -13.235826
 C         -18.991949      -58.864143      -14.700673
 C         -19.769737      -58.808853      -13.359612
 H         -21.378881      -55.960896      -14.425736
 H         -20.281908      -55.709171      -12.988454
 H         -18.270203      -57.720055      -16.249048
 H         -17.532297      -57.217575      -14.624798
 H         -21.749598      -58.141308      -13.645161
 H         -21.028149      -57.545147      -12.208877
 H         -18.227591      -59.641220      -14.807637
 H         -19.740093      -59.149708      -15.401831
 H         -20.272566      -59.783726      -13.131139
 H         -18.980587      -58.665756      -12.640512
