20
 generated by VMD
 C         -19.792500      -58.703232      -17.226480
 N         -19.296953      -58.859116      -18.251514
 H         -22.673437      -59.779053      -16.533689
 H         -20.442455      -58.740440      -16.478056
 C         -22.724915      -60.804352      -16.171196
 C         -23.502785      -61.533184      -17.195633
 C         -22.636978      -61.269028      -14.751053
 C         -23.399218      -63.034767      -17.008463
 C         -22.290905      -62.708927      -14.666598
 C         -23.110939      -63.634617      -15.648404
 H         -23.188375      -61.295887      -18.271723
 H         -24.607119      -61.080994      -17.119234
 H         -21.915428      -60.662605      -14.228480
 H         -23.565809      -61.006771      -14.279173
 H         -22.607197      -63.383572      -17.667755
 H         -24.327919      -63.473881      -17.372992
 H         -22.236156      -63.121281      -13.667178
 H         -21.265848      -62.836338      -14.985438
 H         -22.493731      -64.527527      -15.836202
 H         -23.957405      -64.017708      -15.174478
