20
 generated by VMD
 C         -69.178413     -194.262543      -64.630402
 N         -68.386986     -193.927094      -65.444977
 H         -71.031624     -193.991974      -67.616646
 H         -69.755905     -194.641922      -63.827618
 C         -71.906960     -193.564987      -67.213425
 C         -71.544815     -192.215424      -66.628403
 C         -73.301720     -194.004303      -67.202705
 C         -72.555496     -191.694778      -65.537811
 C         -74.358444     -192.969376      -66.835732
 C         -73.933121     -192.354828      -65.471024
 H         -71.468224     -191.418243      -67.537338
 H         -70.571625     -192.213135      -66.215683
 H         -73.620316     -194.279251      -68.289696
 H         -73.357285     -195.029083      -66.713570
 H         -72.805031     -190.689957      -65.713921
 H         -72.121071     -191.654739      -64.527428
 H         -75.383232     -193.455658      -66.783447
 H         -74.377434     -192.252487      -67.661987
 H         -74.766556     -191.596786      -65.114311
 H         -73.946533     -193.087784      -64.749947
