20
 generated by VMD
 C         -31.002918      -75.735825      -22.686888
 N         -30.975840      -74.934219      -23.515598
 H         -28.738176      -78.758713      -21.394379
 H         -31.000694      -76.443130      -21.958105
 C         -27.963537      -78.054024      -21.558828
 C         -26.976414      -78.241203      -22.674614
 C         -27.491631      -77.107086      -20.412224
 C         -26.261629      -76.927521      -23.207825
 C         -26.885271      -75.824738      -20.973597
 C         -25.806139      -75.984726      -21.995222
 H         -27.497688      -78.782249      -23.619701
 H         -26.204741      -78.938522      -22.188753
 H         -28.218109      -76.983231      -19.505278
 H         -26.655834      -77.670174      -19.970373
 H         -26.903212      -76.332550      -23.842909
 H         -25.339943      -77.152428      -23.803087
 H         -26.582001      -75.284081      -20.146130
 H         -27.701199      -75.361031      -21.510632
 H         -25.525892      -75.029831      -22.404226
 H         -24.983208      -76.556885      -21.465448
