20
 generated by VMD
 C         -38.308876     -107.974709      -36.839699
 N         -38.302288     -108.547012      -37.869614
 H         -40.886429     -108.662804      -35.091225
 H         -38.172012     -107.541313      -35.841614
 C         -41.246952     -109.611038      -34.907627
 C         -40.388332     -110.835365      -35.193817
 C         -42.466911     -109.826729      -34.028530
 C         -40.145458     -111.748306      -33.861809
 C         -42.212734     -110.649078      -32.738270
 C         -41.423805     -111.915779      -33.124992
 H         -39.364967     -110.658073      -35.588932
 H         -40.743114     -111.522507      -35.958942
 H         -42.882412     -108.872536      -33.774109
 H         -43.111164     -110.449631      -34.699154
 H         -39.291218     -111.350952      -33.157948
 H         -39.716599     -112.631119      -34.292027
 H         -43.120712     -111.030418      -32.332355
 H         -41.765186     -110.008820      -32.079929
 H         -41.178295     -112.459534      -32.248405
 H         -42.168156     -112.605286      -33.774658
