20
 generated by VMD
 C         -24.644110      -70.050056      -16.421314
 N         -24.624924      -70.647636      -15.416725
 H         -23.674828      -67.544518      -19.170252
 H         -24.689365      -69.487282      -17.274080
 C         -24.423710      -68.212700      -19.593235
 C         -23.849224      -68.843117      -20.908199
 C         -25.825275      -67.728806      -19.528070
 C         -24.663843      -70.026268      -21.370199
 C         -26.620386      -69.019096      -19.900877
 C         -26.138269      -69.601654      -21.331509
 H         -22.711214      -69.125137      -20.666100
 H         -23.847824      -68.192505      -21.782124
 H         -26.118462      -67.364174      -18.546274
 H         -25.971834      -66.771652      -20.052221
 H         -24.727715      -70.816704      -20.664524
 H         -24.382929      -70.447632      -22.369085
 H         -27.704382      -68.749535      -19.706625
 H         -26.343435      -69.793182      -19.069313
 H         -26.816805      -70.410789      -21.680870
 H         -26.210423      -68.891273      -22.184263
