20
 generated by VMD
 C          -1.029287      -10.254271        1.140536
 N          -1.792624       -9.744369        0.556112
 H          -3.425364      -12.211899        1.096546
 H          -4.254225      -12.038280        2.612245
 C          -3.949939      -12.775935        1.832375
 C          -3.137754      -14.008917        2.317494
 C          -5.172112      -13.262750        1.086740
 C          -4.076559      -14.818562        3.305322
 C          -6.066799      -14.129482        1.987967
 C          -5.344022      -15.265492        2.670968
 H          -2.149937      -13.637511        2.796752
 H          -2.782986      -14.643502        1.471809
 H          -5.839963      -12.409094        0.909453
 H          -4.943480      -13.806034        0.146862
 H          -4.172313      -14.114361        4.167819
 H          -3.404189      -15.632724        3.692818
 H          -6.910182      -14.542760        1.421155
 H          -6.524315      -13.493476        2.719652
 H          -6.002800      -15.828273        3.323261
 H          -5.051064      -15.930664        1.872131
