20
 generated by VMD
 C         -32.319267      -93.479668      -25.358116
 N         -33.040077      -94.403015      -25.562449
 H         -33.672558      -94.851875      -28.625881
 H         -31.794048      -92.639038      -25.135527
 C         -34.312466      -94.212334      -29.174704
 C         -35.528324      -93.545662      -28.546583
 C         -33.684139      -93.406570      -30.282570
 C         -35.403313      -92.073074      -28.186172
 C         -33.535839      -91.891708      -29.873251
 C         -34.864307      -91.379135      -29.425816
 H         -35.769112      -94.023727      -27.618660
 H         -36.307339      -93.773041      -29.299612
 H         -32.744465      -93.909996      -30.344790
 H         -34.201908      -93.532188      -31.255152
 H         -34.621944      -91.889153      -27.374512
 H         -36.295536      -91.632889      -27.818743
 H         -33.246178      -91.415535      -30.844936
 H         -32.765316      -91.669876      -29.114414
 H         -34.793854      -90.358643      -29.212906
 H         -35.538918      -91.263451      -30.267483
