20
 generated by VMD
 C         -79.526237     -206.852600      -74.634155
 N         -80.267784     -206.052933      -74.310196
 H         -78.186768     -207.080338      -71.909607
 H         -79.066147     -207.729599      -74.901688
 C         -77.353615     -207.048492      -71.307251
 C         -76.101807     -206.210068      -71.541931
 C         -77.321899     -208.222519      -70.440582
 C         -75.382042     -206.004211      -70.189590
 C         -76.458023     -208.149780      -69.235626
 C         -75.229240     -207.344498      -69.500336
 H         -76.217407     -205.188614      -71.898537
 H         -75.570236     -206.792465      -72.330933
 H         -78.315193     -208.499268      -70.046646
 H         -77.029465     -209.080719      -70.995247
 H         -76.070084     -205.438995      -69.485077
 H         -74.382095     -205.471558      -70.303566
 H         -76.312439     -209.158554      -68.786514
 H         -76.995300     -207.600327      -68.460335
 H         -74.712532     -207.107529      -68.599236
 H         -74.666237     -208.099014      -70.138214
