20
 generated by VMD
 C         -68.340912     -193.923569      -65.928268
 N         -67.965012     -194.646362      -65.086685
 H         -70.674271     -191.835602      -67.296806
 H         -69.018639     -193.359222      -66.564011
 C         -71.486008     -191.679031      -66.609840
 C         -72.258675     -190.445587      -66.534195
 C         -71.899506     -192.929214      -65.965424
 C         -73.758087     -190.613937      -66.151939
 C         -72.952362     -192.717468      -64.869286
 C         -74.136909     -191.945435      -65.549255
 H         -72.147346     -189.919724      -67.489937
 H         -71.680786     -189.963699      -65.796196
 H         -72.369476     -193.594650      -66.746117
 H         -71.080200     -193.297241      -65.353378
 H         -74.389832     -190.609711      -67.048836
 H         -73.967087     -189.826202      -65.444832
 H         -72.661324     -192.212585      -63.963531
 H         -73.299828     -193.691986      -64.607590
 H         -74.714630     -192.523483      -66.201340
 H         -74.891716     -191.675323      -64.652817
