20
 generated by VMD
 C         -68.511589     -194.127106      -66.543610
 N         -67.699486     -193.907608      -65.713799
 H         -70.171394     -190.768784      -66.294678
 H         -69.142067     -194.341751      -67.464256
 C         -71.172577     -190.992828      -65.903732
 C         -72.284508     -190.271759      -66.609261
 C         -71.476913     -191.674026      -64.580261
 C         -73.663704     -191.059189      -66.608711
 C         -72.913673     -191.597458      -64.189552
 C         -73.898834     -191.999039      -65.287323
 H         -71.941307     -190.112488      -67.588379
 H         -72.421829     -189.220627      -66.054771
 H         -71.186554     -192.703705      -64.649254
 H         -70.837524     -191.133026      -63.827770
 H         -73.590302     -191.643616      -67.535255
 H         -74.537025     -190.438644      -66.863396
 H         -73.069504     -190.565277      -63.778831
 H         -72.954437     -192.316849      -63.411163
 H         -73.729668     -193.124344      -65.573051
 H         -74.927719     -191.810379      -64.969116
