20
 generated by VMD
 C         -18.079184      -48.554668       -7.374444
 N         -18.316116      -48.703896       -6.299398
 H         -16.348713      -48.006100      -10.175323
 H         -16.118139      -49.067745      -11.725782
 C         -16.348850      -48.023098      -11.307848
 C         -15.187162      -47.174286      -11.750191
 C         -17.728426      -47.610733      -11.791060
 C         -15.317750      -46.678398      -13.171156
 C         -17.715645      -47.543423      -13.331349
 C         -16.732010      -46.403019      -13.638177
 H         -14.286792      -47.692768      -11.526432
 H         -15.308492      -46.314251      -11.079390
 H         -18.494801      -48.283218      -11.408176
 H         -18.044277      -46.679966      -11.368716
 H         -14.874886      -47.440292      -13.829932
 H         -14.679208      -45.794575      -13.383209
 H         -18.760042      -47.196495      -13.521779
 H         -17.426937      -48.443825      -13.915632
 H         -16.757866      -46.111103      -14.737678
 H         -17.079733      -45.457008      -13.107787
