20
 generated by VMD
 C         -47.808773     -136.534851      -45.927471
 N         -46.900543     -136.044739      -46.499065
 H         -51.168312     -135.419388      -45.869820
 H         -48.782009     -136.997345      -45.742573
 C         -51.606148     -136.229034      -45.361355
 C         -52.203671     -137.395798      -46.060478
 C         -51.819817     -136.233154      -43.860943
 C         -51.966610     -138.801315      -45.375641
 C         -51.527344     -137.595490      -43.201149
 C         -52.286564     -138.692352      -43.908642
 H         -51.787617     -137.511978      -47.085121
 H         -53.241219     -137.140305      -46.095154
 H         -51.167206     -135.514359      -43.423042
 H         -52.864178     -135.923111      -43.604523
 H         -50.871574     -138.949020      -45.358925
 H         -52.318256     -139.613983      -45.940079
 H         -51.936207     -137.631454      -42.185452
 H         -50.464161     -137.693420      -43.074936
 H         -52.272804     -139.707626      -43.428696
 H         -53.402748     -138.619049      -43.764809
