20
 generated by VMD
 C         -31.029211      -77.584770      -25.301855
 N         -31.994246      -77.086845      -25.528049
 H         -29.448275      -77.169128      -22.615511
 H         -30.268896      -78.149506      -24.686930
 C         -28.595089      -77.760666      -22.212599
 C         -27.452555      -78.057480      -23.199917
 C         -29.037930      -78.865257      -21.355108
 C         -26.277140      -78.752716      -22.532127
 C         -27.865120      -79.698227      -20.847904
 C         -26.766779      -80.029907      -21.890566
 H         -27.140421      -77.089615      -23.600437
 H         -27.785807      -78.796936      -23.984074
 H         -29.514574      -78.396309      -20.453512
 H         -29.798393      -79.546364      -21.732521
 H         -25.761774      -78.156036      -21.756870
 H         -25.536966      -78.881798      -23.300465
 H         -28.499945      -80.636078      -20.490786
 H         -27.431070      -79.221001      -19.918045
 H         -25.982872      -80.710960      -21.494738
 H         -27.225357      -80.722496      -22.532084
