20
 generated by VMD
 C         -66.385406     -189.637772      -66.639763
 N         -66.279831     -189.280502      -67.726257
 H         -69.965340     -190.471542      -65.092392
 H         -66.635368     -190.107376      -65.739174
 C         -70.758255     -189.969910      -64.620140
 C         -71.950478     -190.786362      -64.132309
 C         -70.515320     -188.651184      -63.870411
 C         -73.134346     -189.838150      -63.834309
 C         -71.761261     -187.785950      -63.760040
 C         -72.870697     -188.589188      -63.193981
 H         -71.541367     -191.164917      -63.131802
 H         -72.242737     -191.644150      -64.809174
 H         -70.291840     -188.916794      -62.830246
 H         -69.508743     -188.120880      -64.161316
 H         -73.735802     -190.349030      -63.130146
 H         -73.817657     -189.740234      -64.702797
 H         -71.990639     -187.294418      -64.712334
 H         -71.527496     -186.939072      -63.181911
 H         -72.648209     -188.853851      -62.075432
 H         -73.792549     -187.921280      -63.279522
