20
 generated by VMD
 C         -47.961994     -125.855545      -38.800995
 N         -48.573540     -126.847328      -38.580864
 H         -45.955021     -123.292458      -38.085754
 H         -47.430351     -124.943535      -38.951366
 C         -45.662235     -123.335167      -39.181099
 C         -44.507168     -124.228333      -39.438885
 C         -45.597301     -122.018738      -39.865650
 C         -44.414368     -124.552307      -40.910294
 C         -45.508446     -122.229706      -41.421898
 C         -44.496155     -123.260986      -41.870583
 H         -44.668716     -125.188026      -39.044407
 H         -43.563129     -123.778152      -39.096020
 H         -46.313232     -121.211823      -39.607975
 H         -44.553383     -121.780655      -39.507893
 H         -45.328491     -125.108223      -41.206139
 H         -43.437141     -125.115562      -41.143105
 H         -45.431175     -121.133743      -41.888130
 H         -46.529621     -122.727371      -41.688461
 H         -44.535126     -123.558769      -42.923717
 H         -43.611160     -122.745186      -41.645477
