20
 generated by VMD
 C         -61.330753     -154.752426      -53.805897
 N         -61.767464     -155.084579      -52.798725
 H         -58.029526     -155.085709      -52.252056
 H         -61.035522     -154.465652      -54.789661
 C         -57.149342     -154.625809      -51.800602
 C         -57.249176     -154.211990      -50.383965
 C         -55.895050     -154.201309      -52.536865
 C         -56.225151     -154.667389      -49.415333
 C         -54.659248     -154.600037      -51.640457
 C         -54.781590     -154.188232      -50.142166
 H         -58.128162     -154.568497      -49.900661
 H         -57.246887     -153.093185      -50.478416
 H         -55.800133     -154.653839      -53.553940
 H         -56.139225     -153.119049      -52.586498
 H         -56.211784     -155.812943      -49.328617
 H         -56.246334     -154.149185      -48.470245
 H         -53.755547     -154.225906      -52.103485
 H         -54.593220     -155.714661      -51.543819
 H         -53.973129     -154.614609      -49.653248
 H         -54.677586     -153.056641      -50.050133
