20
 generated by VMD
 C         -43.234562     -121.181488      -35.794128
 N         -43.410992     -120.502739      -34.851944
 H         -44.549942     -122.066429      -38.862835
 H         -43.305443     -121.870277      -36.580505
 C         -44.610245     -121.083511      -39.275593
 C         -43.308147     -120.533211      -39.759518
 C         -45.818333     -120.283875      -38.793133
 C         -43.550083     -119.158859      -40.424393
 C         -45.811497     -118.941383      -39.398075
 C         -44.418716     -118.248749      -39.515308
 H         -42.969948     -121.257858      -40.435558
 H         -42.731247     -120.308136      -38.860519
 H         -46.796051     -120.766243      -38.894749
 H         -45.615803     -120.262215      -37.741077
 H         -44.177490     -119.172501      -41.382294
 H         -42.589558     -118.628014      -40.655338
 H         -46.583729     -118.243324      -38.905182
 H         -46.141575     -119.011177      -40.587574
 H         -44.582340     -117.239708      -39.898735
 H         -44.069897     -118.261848      -38.471966
