20
 generated by VMD
 C         -67.595390     -179.651047      -58.566586
 N         -68.197838     -179.773804      -59.574474
 H         -67.372169     -177.033875      -60.015732
 H         -67.077911     -179.444382      -57.651386
 C         -66.421127     -176.571564      -60.141911
 C         -66.100441     -175.798157      -61.460754
 C         -65.293686     -176.947311      -59.224037
 C         -64.978790     -174.859650      -61.219353
 C         -64.126457     -176.070892      -59.154987
 C         -63.803802     -175.362122      -60.472240
 H         -66.946831     -175.237885      -61.797520
 H         -66.032784     -176.574051      -62.273079
 H         -65.604950     -177.206223      -58.232639
 H         -64.833252     -177.895050      -59.669567
 H         -65.280365     -173.886490      -60.719814
 H         -64.726044     -174.437057      -62.169590
 H         -63.256001     -176.687653      -58.869888
 H         -64.295982     -175.276321      -58.442699
 H         -63.147102     -174.567505      -60.114052
 H         -63.025337     -175.890320      -61.021645
