20
 generated by VMD
 C         -58.138016     -150.855850      -49.084324
 N         -58.280895     -151.965469      -48.655170
 H         -55.600063     -149.796906      -47.793472
 H         -58.100586     -149.844360      -49.558392
 C         -55.332905     -149.530533      -48.780346
 C         -54.286579     -150.315414      -49.491398
 C         -55.137573     -147.988815      -48.897503
 C         -54.184048     -149.949997      -50.924316
 C         -54.866291     -147.681915      -50.406693
 C         -53.779488     -148.555191      -51.078915
 H         -54.642395     -151.364014      -49.434666
 H         -53.380047     -150.352036      -48.963909
 H         -55.998295     -147.409302      -48.590023
 H         -54.249069     -147.744217      -48.261509
 H         -55.119984     -150.103210      -51.469063
 H         -53.495285     -150.498718      -51.533104
 H         -54.635216     -146.614288      -50.440956
 H         -55.805332     -147.686249      -50.876720
 H         -53.774567     -148.323822      -52.088570
 H         -52.732170     -148.402252      -50.708755
