20
 generated by VMD
 C         -22.243376      -55.046856      -17.276453
 N         -22.736284      -55.106560      -18.392971
 H         -20.820499      -56.251293      -14.082162
 H         -21.802406      -55.388939      -16.415783
 C         -20.562435      -57.260521      -14.131212
 C         -20.869068      -58.049202      -12.998561
 C         -19.686089      -57.867496      -15.171689
 C         -20.838898      -59.546890      -13.170280
 C         -19.742731      -59.343075      -15.263442
 C         -19.706907      -60.066299      -13.924484
 H         -21.842251      -57.752396      -12.726824
 H         -20.113632      -57.723701      -12.294454
 H         -20.103565      -57.613712      -16.137577
 H         -18.653177      -57.420864      -15.123216
 H         -21.801426      -59.818916      -13.674894
 H         -20.882328      -60.142372      -12.195787
 H         -18.944395      -59.639629      -15.947375
 H         -20.656786      -59.650856      -15.868876
 H         -19.920555      -61.120457      -14.057928
 H         -18.714886      -59.958836      -13.357285
