20
 generated by VMD
 C         -29.435928      -80.017487      -26.594450
 N         -29.803938      -80.176659      -27.660002
 H         -28.313028      -82.756355      -24.745039
 H         -28.836716      -80.033211      -25.665373
 C         -29.215963      -82.969818      -24.251003
 C         -29.302168      -82.762665      -22.777912
 C         -29.981050      -84.061600      -24.862366
 C         -30.736151      -82.865707      -22.271112
 C         -31.409315      -84.226410      -24.345808
 C         -31.508772      -84.113625      -22.789543
 H         -28.658266      -82.002060      -22.439665
 H         -28.716862      -83.629280      -22.350176
 H         -30.007359      -84.006859      -26.007006
 H         -29.443987      -85.017273      -24.669872
 H         -31.362659      -81.930649      -22.343952
 H         -30.728683      -82.918480      -21.163836
 H         -31.931602      -85.189651      -24.734056
 H         -32.030270      -83.434212      -24.740141
 H         -32.471832      -83.868095      -22.359739
 H         -31.124624      -85.015945      -22.184923
