20
 generated by VMD
 C         -59.002644     -159.771927      -57.089504
 N         -58.271553     -160.106354      -58.013866
 H         -58.932915     -161.182907      -54.848820
 H         -59.612709     -159.495041      -56.225639
 C         -59.494728     -161.796661      -54.183968
 C         -59.025768     -162.154327      -52.808178
 C         -60.868744     -162.111801      -54.604279
 C         -59.994484     -161.904343      -51.673946
 C         -61.802475     -161.970688      -53.436806
 C         -61.366589     -162.456757      -52.072552
 H         -58.051411     -161.576370      -52.731758
 H         -58.526386     -163.179993      -52.735401
 H         -61.146217     -161.535278      -55.425289
 H         -60.857510     -163.205292      -54.861824
 H         -60.028206     -160.767090      -51.398922
 H         -59.796928     -162.605286      -50.827579
 H         -62.749393     -162.597870      -53.558018
 H         -62.002056     -160.863892      -53.426632
 H         -62.094051     -162.253357      -51.344940
 H         -61.346676     -163.558670      -52.095264
