20
 generated by VMD
 C         -50.833714     -129.969055      -44.927834
 N         -51.620029     -129.241821      -45.280510
 H         -48.730408     -129.860199      -43.105919
 H         -50.020435     -130.616943      -44.756721
 C         -48.045731     -129.833466      -42.178574
 C         -47.957920     -131.180099      -41.599998
 C         -47.462986     -128.612976      -41.617676
 C         -46.578209     -131.402710      -41.152847
 C         -46.109123     -128.877472      -41.146015
 C         -45.998249     -130.209534      -40.316177
 H         -48.311771     -131.879898      -42.279202
 H         -48.648052     -131.242126      -40.668224
 H         -47.385677     -127.809120      -42.473381
 H         -48.119900     -128.175003      -40.858124
 H         -45.883007     -131.525604      -42.044289
 H         -46.206867     -132.358932      -40.588013
 H         -45.757412     -128.074036      -40.555653
 H         -45.494354     -128.959106      -42.052818
 H         -44.931644     -130.255722      -40.165321
 H         -46.589394     -130.154434      -39.357273
