20
 generated by VMD
 C         -36.854694      -98.399979      -25.726683
 N         -36.946922      -98.396156      -26.898399
 H         -35.904636      -96.122314      -28.375568
 H         -36.929379      -98.409752      -24.664673
 C         -35.613091      -95.786469      -29.400797
 C         -35.690674      -96.527603      -30.666014
 C         -34.461758      -94.880112      -29.132721
 C         -35.095886      -95.785706      -31.914190
 C         -33.927837      -94.147697      -30.454487
 C         -33.722828      -95.210159      -31.576860
 H         -36.787697      -96.568604      -30.909121
 H         -35.243015      -97.512436      -30.592258
 H         -34.701439      -94.266281      -28.283037
 H         -33.605141      -95.441902      -28.785038
 H         -35.822777      -95.123878      -32.426739
 H         -34.865971      -96.556885      -32.625919
 H         -33.048306      -93.652412      -30.134495
 H         -34.752247      -93.431480      -30.790277
 H         -33.116844      -94.817360      -32.395123
 H         -32.949711      -96.011497      -31.044567
