20
 generated by VMD
 C         -22.365253      -68.146461      -16.609482
 N         -21.922005      -68.400772      -15.561364
 H         -24.039856      -66.507675      -18.055286
 H         -22.936367      -68.065796      -17.453321
 C         -24.694725      -66.454514      -18.922102
 C         -23.969946      -67.141800      -20.140932
 C         -26.174919      -66.535004      -18.942614
 C         -24.424318      -68.620750      -20.367138
 C         -26.623245      -68.010757      -19.155354
 C         -25.941908      -68.641212      -20.291906
 H         -22.847918      -67.141281      -19.945292
 H         -24.100515      -66.419319      -21.083332
 H         -26.653482      -66.239601      -18.006323
 H         -26.654385      -65.894775      -19.573589
 H         -24.064646      -69.228233      -19.525984
 H         -24.004194      -68.923080      -21.285254
 H         -27.700361      -67.877892      -19.420519
 H         -26.480307      -68.626503      -18.244705
 H         -26.192261      -69.694954      -20.418869
 H         -26.448238      -68.219398      -21.180298
