20
 generated by VMD
 C         -60.223324     -156.476578      -55.742832
 N         -60.828491     -155.560150      -55.929501
 H         -59.757374     -157.848740      -52.989532
 H         -59.662560     -157.331268      -55.379959
 C         -58.750080     -157.961197      -52.715832
 C         -57.767433     -156.778610      -52.546837
 C         -58.382248     -159.317551      -52.176842
 C         -57.325527     -156.595383      -51.143459
 C         -57.776623     -159.068283      -50.703968
 C         -56.748795     -157.880402      -50.563004
 H         -58.384781     -155.876816      -52.958897
 H         -56.944172     -156.792236      -53.339172
 H         -59.265236     -160.046097      -52.245335
 H         -57.548428     -159.730515      -52.836441
 H         -58.159843     -156.214325      -50.591209
 H         -56.461464     -155.872253      -50.978767
 H         -57.369026     -160.006607      -50.137077
 H         -58.735893     -158.813126      -50.142635
 H         -56.556290     -157.656754      -49.581810
 H         -55.736183     -158.024017      -51.085876
