20
 generated by VMD
 C         -12.288719      -42.993298       -7.093086
 N         -12.573564      -42.102016       -6.461381
 H         -14.814750      -43.714504       -8.266803
 H         -14.681709      -42.455441       -9.315943
 C         -15.247232      -43.353477       -9.239948
 C         -16.703690      -43.013325       -8.982078
 C         -14.881468      -44.210091      -10.442848
 C         -17.265129      -42.487877      -10.282795
 C         -15.546575      -43.634449      -11.680996
 C         -17.025122      -43.499954      -11.399691
 H         -16.743618      -42.169594       -8.249607
 H         -17.242853      -43.913761       -8.571307
 H         -13.812106      -44.368431      -10.514271
 H         -15.267718      -45.243656      -10.292470
 H         -16.869778      -41.484955      -10.528045
 H         -18.359976      -42.335171      -10.228559
 H         -15.371945      -44.415337      -12.502176
 H         -15.174450      -42.704521      -12.044297
 H         -17.698467      -43.308372      -12.216732
 H         -17.317547      -44.446159      -11.010983
