20
 generated by VMD
 C         -22.855051      -54.856869      -16.463646
 N         -23.736609      -55.278744      -15.878065
 H         -19.237148      -54.833725      -15.362309
 H         -22.260321      -54.359524      -17.081352
 C         -18.974100      -55.766621      -14.793460
 C         -19.447845      -55.590393      -13.308683
 C         -18.610933      -57.064041      -15.315754
 C         -19.887730      -56.893787      -12.569383
 C         -19.463133      -58.182369      -14.727214
 C         -19.408882      -58.176041      -13.245243
 H         -20.301275      -54.895969      -13.325330
 H         -18.772701      -54.933155      -12.736817
 H         -18.611959      -57.184540      -16.427862
 H         -17.498121      -57.270584      -15.126309
 H         -20.992140      -56.911255      -12.494282
 H         -19.463669      -56.870724      -11.569889
 H         -19.027161      -59.159779      -15.075662
 H         -20.494289      -58.167568      -15.022560
 H         -20.108604      -58.983082      -12.949045
 H         -18.404284      -58.502869      -12.947496
