20
 generated by VMD
 C         -41.884083     -101.936607      -33.752876
 N         -40.754730     -101.908493      -34.036243
 H         -39.280807     -103.761902      -32.563183
 H         -42.852695     -102.270218      -33.388084
 C         -38.278488     -103.849327      -32.229073
 C         -37.055164     -103.438126      -33.129997
 C         -37.919956     -104.489975      -30.922972
 C         -35.792984     -103.065292      -32.343811
 C         -36.795151     -103.739990      -30.200689
 C         -35.566071     -103.854408      -31.099611
 H         -37.090504     -102.659164      -33.904514
 H         -36.839577     -104.311562      -33.703655
 H         -38.885090     -104.423882      -30.323372
 H         -37.661892     -105.515015      -30.932158
 H         -35.822212     -102.001099      -32.020840
 H         -35.018497     -103.094383      -33.055992
 H         -36.627209     -104.094772      -29.227674
 H         -37.007557     -102.585373      -30.127167
 H         -34.766888     -103.352432      -30.647020
 H         -35.370846     -104.937515      -31.241497
