20
 generated by VMD
 C          -5.032329      -21.063940        1.757555
 N          -5.354034      -20.441128        2.629271
 H          -4.993165      -18.589022       -0.709081
 H          -5.564852      -20.176350       -0.157451
 C          -5.752283      -19.393335       -0.912265
 C          -5.517967      -20.059992       -2.252615
 C          -7.246292      -18.947638       -0.594624
 C          -6.721225      -20.967966       -2.634484
 C          -8.356380      -19.823978       -1.187588
 C          -8.006576      -20.182718       -2.606370
 H          -4.568581      -20.657280       -2.307385
 H          -5.355641      -19.333189       -3.100370
 H          -7.296455      -18.781532        0.467559
 H          -7.319248      -17.901770       -0.954184
 H          -6.707703      -21.889172       -2.035857
 H          -6.555553      -21.260826       -3.642143
 H          -9.285147      -19.270950       -1.177727
 H          -8.459399      -20.761026       -0.581232
 H          -8.841997      -20.668495       -3.204663
 H          -7.852106      -19.225052       -3.174077
