20
 generated by VMD
 C         -78.555374     -209.200348      -77.129585
 N         -77.858643     -209.708191      -77.911507
 H         -79.160271     -211.688660      -74.101692
 H         -79.319199     -208.747009      -76.389793
 C         -79.297958     -212.038132      -73.103134
 C         -78.005165     -212.311111      -72.425644
 C         -80.435913     -212.973480      -72.796165
 C         -78.284386     -212.541168      -70.899193
 C         -80.713013     -213.383057      -71.372208
 C         -79.370094     -213.696487      -70.699577
 H         -77.407104     -211.402512      -72.567764
 H         -77.453781     -213.170639      -72.796112
 H         -81.448181     -212.675064      -73.211967
 H         -80.275795     -213.921432      -73.363876
 H         -78.519096     -211.536270      -70.547455
 H         -77.384789     -213.013290      -70.389297
 H         -81.233139     -214.272415      -71.426910
 H         -81.222580     -212.495514      -70.836678
 H         -79.674530     -213.945190      -69.662834
 H         -78.897659     -214.503479      -71.401978
