20
 generated by VMD
 C         -13.431784      -30.800932       -8.316972
 N         -13.190718      -30.048288       -9.082339
 H         -11.213746      -31.860607       -6.114147
 H         -11.521820      -31.960119       -4.388651
 C         -11.139816      -32.541740       -5.285756
 C          -9.707236      -32.992401       -5.036446
 C         -12.112166      -33.685520       -5.487778
 C          -9.640737      -34.035976       -3.988326
 C         -11.947350      -34.762901       -4.333874
 C         -10.489050      -35.228687       -4.208056
 H          -9.124531      -32.103672       -4.748924
 H          -9.247952      -33.275066       -6.010322
 H         -13.147581      -33.349899       -5.529038
 H         -11.972451      -34.215294       -6.422429
 H          -9.815209      -33.595432       -2.984200
 H          -8.579345      -34.293949       -3.917966
 H         -12.578013      -35.584824       -4.534276
 H         -12.367522      -34.379227       -3.378778
 H         -10.431047      -35.916168       -3.372774
 H         -10.090500      -35.695599       -5.133079
