20
 generated by VMD
 C         -29.390352      -90.093536      -25.160740
 N         -29.091509      -91.154434      -25.415319
 H         -32.253033      -91.107712      -26.874109
 H         -29.832129      -89.128418      -24.968019
 C         -33.095589      -90.805031      -27.523989
 C         -34.393997      -91.483810      -27.516350
 C         -32.939575      -89.712341      -28.465137
 C         -35.563087      -90.524681      -27.324669
 C         -33.964062      -88.677879      -28.389812
 C         -35.433243      -89.163857      -28.041430
 H         -34.433300      -92.266014      -26.755844
 H         -34.452816      -92.148308      -28.465137
 H         -31.892658      -89.349068      -28.373199
 H         -32.955177      -90.053795      -29.525124
 H         -35.619625      -90.482147      -26.253269
 H         -36.424427      -91.011826      -27.726994
 H         -33.991314      -87.965324      -29.215345
 H         -33.725567      -88.046608      -27.532038
 H         -36.038826      -88.364288      -27.641657
 H         -35.919250      -89.131920      -29.038353
