20
 generated by VMD
 C         -19.880419      -64.036392      -16.407135
 N         -19.977243      -63.149525      -17.168606
 H         -23.664852      -63.291367      -17.223373
 H         -19.583975      -64.913338      -15.953068
 C         -24.135803      -64.195633      -17.575699
 C         -24.477922      -64.288017      -19.051706
 C         -24.339746      -65.260605      -16.597977
 C         -24.666498      -65.731934      -19.474321
 C         -24.748793      -66.620880      -17.068998
 C         -25.564249      -66.458618      -18.435837
 H         -23.665831      -63.667397      -19.615404
 H         -25.331522      -63.601231      -19.320021
 H         -23.321833      -65.315292      -16.096766
 H         -25.069672      -64.941185      -15.821222
 H         -23.653881      -66.122726      -19.518299
 H         -24.983210      -65.671791      -20.488417
 H         -25.371613      -67.158279      -16.323328
 H         -23.867426      -67.256241      -17.137060
 H         -25.835646      -67.466721      -18.909000
 H         -26.440348      -65.879517      -18.153200
