20
 generated by VMD
 C         -20.722366      -52.313873       -9.599062
 N         -21.215277      -51.980812      -10.627368
 H         -18.625242      -49.834194      -10.984553
 H         -20.036316      -52.417480       -8.923398
 C         -17.954861      -49.839123      -11.883643
 C         -17.369959      -51.158699      -12.239708
 C         -17.438129      -48.513660      -12.324152
 C         -16.990120      -51.137600      -13.688597
 C         -16.592508      -48.664116      -13.554977
 C         -15.932652      -50.052456      -13.816595
 H         -18.068043      -51.962681      -11.882233
 H         -16.463905      -51.351627      -11.643483
 H         -18.305895      -47.902943      -12.590042
 H         -16.868780      -48.078831      -11.438471
 H         -17.850286      -50.893745      -14.332962
 H         -16.544806      -52.025692      -14.128861
 H         -15.895531      -47.865799      -13.672175
 H         -17.320908      -48.490051      -14.471938
 H         -15.599153      -50.085171      -14.826864
 H         -15.117702      -50.205715      -13.131824
