20
 generated by VMD
 C         -65.343094     -177.354706      -56.342823
 N         -66.027306     -177.093094      -55.451275
 H         -64.583992     -175.082626      -59.475037
 H         -64.736626     -177.529694      -57.182453
 C         -64.310204     -173.972519      -59.475315
 C         -65.264374     -173.119247      -58.779434
 C         -63.617802     -173.506866      -60.704044
 C         -64.803589     -171.509506      -58.693665
 C         -63.125244     -172.129745      -60.442299
 C         -64.262222     -171.149368      -60.190609
 H         -65.419579     -173.524918      -57.806973
 H         -66.335342     -173.079117      -59.204376
 H         -62.809998     -174.315018      -60.890068
 H         -64.365112     -173.439529      -61.517231
 H         -63.841282     -171.319382      -58.114918
 H         -65.606651     -170.834991      -58.276592
 H         -62.566349     -171.776276      -61.355530
 H         -62.385727     -172.113022      -59.722466
 H         -63.985775     -170.065765      -60.346832
 H         -65.076599     -171.355377      -60.839729
