20
 generated by VMD
 C         -40.534012     -106.803993      -37.485565
 N         -39.418324     -106.663933      -37.833855
 H         -38.565563     -108.263527      -34.604679
 H         -41.418407     -106.949890      -36.887371
 C         -39.257664     -108.954910      -34.048267
 C         -38.695969     -109.985329      -33.159382
 C         -40.705547     -108.788116      -34.367519
 C         -39.644249     -110.487625      -32.106907
 C         -41.592392     -109.338882      -33.258377
 C         -41.093086     -110.759102      -32.763969
 H         -37.785751     -109.419891      -32.858818
 H         -38.263222     -110.755119      -33.811096
 H         -40.867008     -107.748024      -34.434208
 H         -40.951267     -109.273178      -35.346394
 H         -39.612812     -109.780014      -31.339306
 H         -39.351223     -111.505638      -31.729294
 H         -42.682938     -109.270821      -33.706512
 H         -41.695324     -108.671982      -32.361004
 H         -41.839054     -111.269836      -31.953569
 H         -40.991890     -111.401588      -33.593418
