20
 generated by VMD
 C         -56.285225     -150.008591      -46.725685
 N         -56.968994     -150.508286      -45.883713
 H         -53.373756     -147.704514      -47.663864
 H         -55.554241     -149.632675      -47.406792
 C         -53.741016     -147.494934      -48.641861
 C         -52.966507     -147.864609      -49.854870
 C         -54.560295     -146.148209      -48.613781
 C         -53.916767     -147.674362      -50.972801
 C         -55.329567     -146.088287      -49.876301
 C         -54.549759     -146.327759      -51.051537
 H         -52.651245     -148.881149      -49.922863
 H         -52.008877     -147.290833      -49.818787
 H         -55.151619     -146.155167      -47.686031
 H         -53.834240     -145.247421      -48.503891
 H         -54.713043     -148.401154      -51.075108
 H         -53.349815     -147.729431      -51.838779
 H         -55.759029     -145.142349      -49.901119
 H         -56.266479     -146.703171      -49.936188
 H         -55.166264     -146.070145      -51.913422
 H         -53.731380     -145.611496      -51.162453
