20
 generated by VMD
 C         -30.518623      -92.797852      -26.202450
 N         -31.134611      -92.558243      -25.277250
 H         -32.832310      -90.385078      -26.284782
 H         -30.024647      -93.063332      -27.203573
 C         -33.339737      -90.609985      -27.190718
 C         -34.146355      -91.877480      -27.167276
 C         -33.190823      -89.922073      -28.502045
 C         -35.372913      -91.776299      -28.059599
 C         -34.534737      -89.772896      -29.262249
 C         -35.130486      -91.108330      -29.446075
 H         -34.278286      -92.277946      -26.090237
 H         -33.548485      -92.725410      -27.732103
 H         -32.660011      -88.966873      -28.339849
 H         -32.416660      -90.473038      -29.166025
 H         -36.064270      -90.981415      -27.656731
 H         -35.955528      -92.653786      -28.060383
 H         -34.428165      -89.164719      -30.148796
 H         -35.045223      -89.101425      -28.604473
 H         -35.882904      -90.906677      -30.167158
 H         -34.480167      -91.760643      -29.971949
