20
 generated by VMD
 C         -49.043297     -126.867592      -38.865978
 N         -49.995529     -127.319656      -38.389519
 H         -46.799816     -124.903969      -39.627155
 H         -48.117798     -126.445847      -39.242451
 C         -45.930328     -124.431282      -40.135006
 C         -44.605602     -124.952835      -39.880234
 C         -46.093426     -122.945190      -40.368515
 C         -43.765862     -124.681923      -41.093552
 C         -45.226494     -122.589005      -41.588959
 C         -43.842720     -123.189079      -41.492470
 H         -44.770226     -125.998016      -39.799911
 H         -44.163677     -124.514473      -38.987926
 H         -47.163601     -122.619492      -40.322128
 H         -45.628860     -122.314339      -39.510540
 H         -44.120007     -125.376770      -41.841221
 H         -42.722046     -124.987885      -41.041538
 H         -45.284107     -121.512909      -42.089603
 H         -45.774323     -123.144058      -42.423302
 H         -43.360783     -122.920128      -42.508400
 H         -43.240829     -122.583473      -40.810665
