20
 generated by VMD
 C         -60.953125     -154.800858      -51.346649
 N         -60.935509     -154.067352      -52.267876
 H         -57.414268     -153.974060      -53.017590
 H         -60.863880     -155.448318      -50.494862
 C         -56.715797     -153.690308      -52.246830
 C         -57.167885     -153.957672      -50.834911
 C         -55.521027     -152.871796      -52.493790
 C         -56.117985     -154.338058      -49.789726
 C         -54.406601     -153.411621      -51.434532
 C         -54.965878     -153.395248      -49.961746
 H         -58.043968     -154.708237      -50.884926
 H         -57.761658     -153.047821      -50.468723
 H         -55.184830     -152.840500      -53.517700
 H         -55.719105     -151.838806      -52.245483
 H         -55.821507     -155.355774      -49.764675
 H         -56.639732     -154.377914      -48.905998
 H         -53.513268     -152.718674      -51.631836
 H         -54.076584     -154.420364      -51.622585
 H         -54.152824     -153.385666      -49.225800
 H         -55.473320     -152.419937      -49.687435
