20
 generated by VMD
 C         -72.419983     -199.333893      -65.114319
 N         -71.275665     -199.302826      -64.882812
 H         -71.503014     -196.290817      -66.818626
 H         -73.409134     -199.103027      -65.512222
 C         -72.331985     -195.852264      -67.347923
 C         -72.809708     -194.443909      -67.007545
 C         -72.821724     -196.452393      -68.669601
 C         -73.929596     -193.977188      -68.043221
 C         -74.365303     -196.221008      -69.053200
 C         -74.987885     -195.068268      -68.259018
 H         -71.981667     -193.682541      -67.040077
 H         -73.159065     -194.470718      -66.065559
 H         -72.065010     -196.045151      -69.444572
 H         -72.591354     -197.590698      -68.730385
 H         -73.510323     -193.767746      -69.035828
 H         -74.467834     -193.105011      -67.575066
 H         -74.876144     -197.205658      -69.018616
 H         -74.417633     -195.942856      -70.092079
 H         -75.779213     -194.734787      -68.986877
 H         -75.349228     -195.463882      -67.372520
