20
 generated by VMD
 C         -79.222946     -205.752670      -73.465500
 N         -79.192902     -206.885696      -73.848694
 H         -78.514595     -205.780685      -70.174683
 H         -78.927238     -204.827194      -73.023262
 C         -77.584732     -206.182510      -70.482262
 C         -76.664772     -205.350861      -71.369476
 C         -77.165161     -207.466339      -69.731880
 C         -75.336311     -205.289215      -70.654472
 C         -75.734375     -207.215546      -69.239365
 C         -74.811264     -206.621735      -70.328354
 H         -77.019623     -204.390350      -71.681183
 H         -76.604271     -205.945511      -72.259621
 H         -77.680641     -207.930832      -68.921959
 H         -77.063965     -208.193542      -70.578697
 H         -75.454155     -204.626038      -69.792130
 H         -74.614006     -204.835144      -71.346756
 H         -75.316353     -208.225647      -68.971550
 H         -75.868599     -206.673157      -68.363029
 H         -73.778732     -206.447037      -69.945595
 H         -74.820213     -207.405914      -71.073807
