20
 generated by VMD
 C         -65.303864     -176.815689      -56.056709
 N         -65.749023     -177.424896      -55.176006
 H         -63.628311     -174.268753      -58.572376
 H         -64.992462     -176.220947      -56.866524
 C         -64.295494     -173.735184      -59.420517
 C         -65.243111     -172.813751      -58.789040
 C         -63.633980     -173.308716      -60.815876
 C         -64.617279     -171.455780      -58.684357
 C         -63.170826     -171.824097      -60.679726
 C         -64.179344     -170.972549      -59.960808
 H         -65.434387     -172.944443      -57.662510
 H         -66.146843     -172.783417      -59.282593
 H         -62.859119     -174.043259      -61.046261
 H         -64.580246     -173.513794      -61.499268
 H         -63.892208     -171.460419      -57.913452
 H         -65.280487     -170.695435      -58.331497
 H         -62.904221     -171.436417      -61.637039
 H         -62.285694     -171.784683      -59.952579
 H         -63.674183     -170.044250      -59.708858
 H         -65.122101     -170.718201      -60.579372
