20
 generated by VMD
 C         -57.838726     -167.914917      -55.228783
 N         -56.820107     -168.277939      -54.931465
 H         -61.079021     -166.353287      -55.763893
 H         -58.828667     -167.503799      -55.413212
 C         -62.118977     -166.442566      -56.010868
 C         -62.467564     -167.354889      -57.143532
 C         -62.929417     -165.309052      -55.508133
 C         -64.041649     -167.396896      -57.347603
 C         -64.452042     -165.561157      -55.786430
 C         -64.741974     -166.001816      -57.332714
 H         -61.934914     -168.265640      -56.764595
 H         -62.056236     -166.885727      -57.978905
 H         -62.718719     -165.079025      -54.380436
 H         -62.719273     -164.334366      -56.036968
 H         -64.525223     -168.051910      -56.534985
 H         -64.190529     -167.957199      -58.297741
 H         -64.913460     -164.650284      -55.694633
 H         -64.805222     -166.359833      -55.146820
 H         -65.828201     -166.157150      -57.477524
 H         -64.386703     -165.221329      -57.977097
