20
 generated by VMD
 C          -1.778825      -12.993541        0.536161
 N          -1.446002      -13.853772        1.174301
 H          -3.578134      -15.365653        1.961405
 H          -3.983776      -14.955102        0.277461
 C          -4.344461      -15.507857        1.181774
 C          -5.653533      -14.859938        1.799755
 C          -4.603828      -16.966795        0.881259
 C          -6.962429      -15.194703        1.055641
 C          -5.910239      -17.295506        0.186589
 C          -7.113824      -16.740997        0.872300
 H          -5.430427      -13.783383        1.722162
 H          -5.692204      -15.188639        2.803350
 H          -3.738373      -17.469515        0.259036
 H          -4.562554      -17.577614        1.855432
 H          -6.942513      -14.752432        0.026683
 H          -7.919364      -14.852458        1.547901
 H          -6.004146      -18.394346        0.192110
 H          -5.782346      -17.071623       -0.913131
 H          -8.039324      -17.102495        0.431224
 H          -7.091764      -17.128529        1.905204
