20
 generated by VMD
 C         -58.258015     -167.479248      -55.384323
 N         -57.213436     -167.898132      -55.055752
 H         -61.223511     -166.535736      -55.183479
 H         -59.180687     -167.081100      -55.793324
 C         -61.811882     -166.060349      -55.943722
 C         -62.221832     -166.973877      -57.095509
 C         -62.689259     -164.942169      -55.641171
 C         -63.675255     -167.417740      -57.037762
 C         -64.205940     -165.315979      -55.596905
 C         -64.591537     -166.177017      -56.782932
 H         -61.659348     -167.790588      -57.059010
 H         -62.004925     -166.339340      -58.054256
 H         -62.476360     -164.434097      -54.714119
 H         -62.523270     -164.193466      -56.416271
 H         -63.806149     -168.224884      -56.314087
 H         -63.924767     -167.960220      -57.972446
 H         -64.704163     -164.372269      -55.577923
 H         -64.369225     -165.738556      -54.678261
 H         -65.689087     -166.476151      -56.579567
 H         -64.460121     -165.627274      -57.798233
