20
 generated by VMD
 C         -76.930618     -203.431961      -66.756546
 N         -77.715759     -204.058640      -66.161926
 H         -75.497971     -200.590363      -68.362259
 H         -76.251663     -202.924210      -67.361694
 C         -74.674873     -200.032471      -68.853523
 C         -74.831917     -198.521164      -68.735657
 C         -73.757027     -200.619095      -69.849220
 C         -73.537453     -197.860092      -68.996002
 C         -72.946754     -199.714020      -70.693901
 C         -72.941315     -198.279419      -70.392372
 H         -75.018738     -198.505127      -67.641411
 H         -75.701515     -198.088547      -69.212997
 H         -73.015076     -201.250610      -69.252716
 H         -74.441978     -201.115631      -70.478554
 H         -72.872795     -198.168884      -68.166176
 H         -73.563629     -196.728638      -68.899742
 H         -73.372749     -199.850540      -71.723068
 H         -71.886742     -200.098450      -70.806564
 H         -71.832687     -197.985245      -70.564873
 H         -73.573494     -197.749115      -71.173470
