20
 generated by VMD
 C         -79.048004     -206.650696      -75.440536
 N         -79.466049     -207.093170      -76.404007
 H         -78.415222     -209.925034      -73.243607
 H         -78.711494     -206.107437      -74.525093
 C         -77.988518     -209.914169      -72.229645
 C         -76.800354     -209.026840      -72.078568
 C         -78.225517     -210.933487      -71.174789
 C         -76.767708     -208.424469      -70.585396
 C         -78.158714     -210.261246      -69.799850
 C         -77.055702     -209.408234      -69.481392
 H         -76.911484     -208.222290      -72.818848
 H         -75.938087     -209.674042      -72.377975
 H         -79.199463     -211.439835      -71.064163
 H         -77.548042     -211.738007      -71.407669
 H         -77.509178     -207.608734      -70.604111
 H         -75.740761     -207.998978      -70.442513
 H         -78.372475     -211.094818      -69.070671
 H         -79.066635     -209.626419      -69.740318
 H         -77.173172     -208.957275      -68.466698
 H         -76.155113     -209.990280      -69.543205
