20
 generated by VMD
 C         -63.027618     -172.397354      -55.139118
 N         -62.544373     -173.439896      -55.142376
 H         -61.647442     -171.484604      -58.453911
 H         -63.469654     -171.431015      -55.240528
 C         -62.532673     -170.823929      -58.566986
 C         -62.359516     -169.351974      -58.074238
 C         -63.770416     -171.430420      -59.122143
 C         -63.640171     -168.564163      -57.960930
 C         -64.919312     -170.551468      -59.147083
 C         -64.825859     -169.520554      -58.084045
 H         -61.660362     -168.899963      -58.834885
 H         -61.817894     -169.456482      -57.133671
 H         -63.748653     -171.747787      -60.197060
 H         -64.111160     -172.268921      -58.441994
 H         -63.729763     -167.799530      -58.849583
 H         -63.672432     -168.022507      -56.998928
 H         -65.858055     -171.106369      -59.011524
 H         -64.855850     -170.052811      -60.111504
 H         -65.606308     -168.832245      -58.129414
 H         -64.949524     -170.056396      -57.096836
