20
 generated by VMD
 C         -21.926773      -67.131599      -16.667904
 N         -21.015995      -66.892822      -16.000309
 H         -24.184151      -64.698906      -18.307968
 H         -22.778690      -67.220032      -17.424702
 C         -24.579012      -65.642593      -18.583359
 C         -23.907843      -66.317970      -19.778793
 C         -25.817633      -66.274338      -18.060364
 C         -24.365747      -67.712082      -20.093431
 C         -26.249031      -67.593185      -18.477795
 C         -25.797733      -67.981514      -19.899115
 H         -22.895088      -66.253868      -19.918516
 H         -24.272274      -65.734627      -20.636736
 H         -25.816626      -65.953285      -16.976830
 H         -26.667198      -65.613625      -18.490536
 H         -23.762445      -68.394371      -19.452381
 H         -23.993189      -67.900589      -21.107040
 H         -27.351433      -67.640251      -18.337830
 H         -25.778296      -68.269852      -17.726759
 H         -25.976946      -69.077644      -20.098114
 H         -26.452753      -67.409058      -20.570280
