20
 generated by VMD
 C         -70.069443     -184.073212      -65.953964
 N         -69.008705     -183.820602      -66.417381
 H         -69.187553     -184.257462      -63.493008
 H         -71.060242     -184.206284      -65.569977
 C         -68.775604     -183.925079      -62.542301
 C         -69.016243     -184.620407      -61.297359
 C         -67.974037     -182.692596      -62.560177
 C         -67.841545     -184.743790      -60.415291
 C         -66.975716     -182.510468      -61.449238
 C         -67.409317     -183.235016      -60.152367
 H         -69.295097     -185.678467      -61.596878
 H         -69.811340     -184.249374      -60.662712
 H         -67.563301     -182.605713      -63.507774
 H         -68.641533     -181.776138      -62.519302
 H         -66.903198     -185.070557      -60.965824
 H         -67.816986     -185.295776      -59.479805
 H         -66.752388     -181.466568      -61.340820
 H         -66.073639     -182.995453      -61.733040
 H         -66.495125     -183.385086      -59.584820
 H         -68.256523     -182.707062      -59.570904
