20
 generated by VMD
 C         -32.609901      -96.028786      -25.514574
 N         -33.086670      -95.717789      -24.497379
 H         -34.178524      -94.201439      -27.558357
 H         -32.107395      -96.448227      -26.282692
 C         -34.418022      -93.554123      -28.463400
 C         -35.845047      -93.629509      -28.927483
 C         -33.401379      -93.394890      -29.573801
 C         -36.200478      -92.303558      -29.807726
 C         -33.690174      -92.138748      -30.373737
 C         -35.150070      -92.251099      -30.863857
 H         -36.488182      -93.668732      -28.084354
 H         -36.189045      -94.443451      -29.619265
 H         -32.429871      -93.335159      -29.106636
 H         -33.421127      -94.316566      -30.190594
 H         -36.229630      -91.257111      -29.304672
 H         -37.234879      -92.495613      -30.178387
 H         -33.095825      -92.068123      -31.265087
 H         -33.565281      -91.298439      -29.570913
 H         -35.527721      -91.397179      -31.522110
 H         -35.243443      -93.033562      -31.580345
