20
 generated by VMD
 C         -79.584274     -206.884842      -75.102356
 N         -79.907524     -207.583206      -74.266716
 H         -76.966179     -207.345627      -72.940567
 H         -79.394249     -206.277573      -75.969490
 C         -76.809113     -208.101974      -72.248085
 C         -75.641968     -207.899643      -71.366974
 C         -77.909248     -208.918533      -71.772316
 C         -75.993095     -207.506622      -69.999138
 C         -78.126022     -208.918274      -70.152588
 C         -76.771111     -208.691727      -69.497360
 H         -75.096764     -207.102859      -71.848434
 H         -75.012604     -208.778992      -71.203163
 H         -78.806534     -208.600815      -72.236267
 H         -77.729660     -209.991013      -72.009132
 H         -76.756775     -206.704834      -70.024155
 H         -75.138596     -207.355469      -69.310097
 H         -78.511078     -209.844193      -69.757744
 H         -78.974991     -208.183807      -69.999878
 H         -76.917458     -208.531174      -68.392616
 H         -76.107971     -209.540039      -69.668442
