20
 generated by VMD
 C          -5.742461      -21.436893        1.720972
 N          -6.472700      -22.264582        1.556910
 H          -5.226005      -19.055887       -0.637347
 H          -6.381320      -20.080828        0.065842
 C          -6.021127      -19.746622       -0.925281
 C          -5.618433      -20.941425       -1.782394
 C          -7.160430      -18.989561       -1.521599
 C          -6.811665      -21.847591       -2.157918
 C          -8.302822      -19.911077       -1.873720
 C          -7.875123      -20.990744       -2.801030
 H          -4.789382      -21.550205       -1.257320
 H          -5.297643      -20.570028       -2.743547
 H          -7.551714      -18.179502       -0.779104
 H          -6.836063      -18.483665       -2.466985
 H          -7.258969      -22.444368       -1.319754
 H          -6.496445      -22.601862       -2.894766
 H          -9.071595      -19.293144       -2.329227
 H          -8.805717      -20.329523       -0.980835
 H          -8.755692      -21.628817       -3.091501
 H          -7.426808      -20.516239       -3.720556
