20
 generated by VMD
 C         -70.324379     -181.182358      -62.535404
 N         -70.745293     -180.129639      -62.833580
 H         -66.733894     -181.711731      -60.860157
 H         -69.920425     -182.202118      -62.375420
 C         -66.261635     -180.794571      -60.655510
 C         -64.822563     -180.703125      -60.285278
 C         -67.152908     -179.682800      -60.256500
 C         -64.258904     -179.345734      -60.764328
 C         -66.631256     -178.524872      -61.010540
 C         -65.189713     -178.172211      -60.542767
 H         -64.381378     -181.629822      -60.657295
 H         -64.822273     -180.618256      -59.219223
 H         -68.262260     -179.765030      -60.559288
 H         -67.089073     -179.476593      -59.149578
 H         -63.850220     -179.458908      -61.836704
 H         -63.348511     -179.098770      -60.036270
 H         -67.266563     -177.701614      -60.804710
 H         -66.604935     -178.626953      -62.083515
 H         -65.009300     -177.131058      -61.052708
 H         -65.313316     -177.994202      -59.438774
