20
 generated by VMD
 C         -67.400742     -189.603668      -66.576202
 N         -66.304550     -189.762039      -66.899780
 H         -70.293701     -190.734360      -65.885696
 H         -68.342155     -189.534073      -66.133034
 C         -70.814713     -190.192245      -65.033318
 C         -72.120705     -190.917526      -64.631393
 C         -70.311424     -188.917801      -64.219887
 C         -73.169632     -190.064865      -63.930759
 C         -71.583725     -188.112152      -63.954056
 C         -72.648468     -188.822067      -63.138493
 H         -71.809105     -191.767365      -63.842766
 H         -72.498611     -191.534821      -65.515396
 H         -69.766029     -189.253922      -63.350067
 H         -69.504692     -188.401245      -64.724442
 H         -73.747757     -190.687027      -63.254395
 H         -74.030121     -189.784653      -64.627808
 H         -71.938965     -187.749146      -64.929344
 H         -71.425362     -187.235519      -63.404690
 H         -72.209488     -189.226974      -62.139229
 H         -73.385857     -188.036743      -63.062771
