20
 generated by VMD
 C         -19.460287      -62.336670      -17.556204
 N         -20.132170      -62.271259      -16.618603
 H         -22.308268      -64.114731      -16.609543
 H         -18.869678      -62.636173      -18.481432
 C         -23.121506      -64.670334      -17.095325
 C         -23.580194      -64.197128      -18.406513
 C         -24.172773      -65.152832      -16.102396
 C         -24.581087      -65.129181      -19.154785
 C         -25.176849      -66.024170      -16.911171
 C         -25.790224      -65.529434      -18.235670
 H         -22.581793      -64.059494      -19.020855
 H         -23.994856      -63.116295      -18.354877
 H         -23.712454      -65.919151      -15.361161
 H         -24.728350      -64.378670      -15.577105
 H         -24.062973      -66.029449      -19.504509
 H         -25.003929      -64.679451      -20.038578
 H         -25.972620      -66.484451      -16.281454
 H         -24.712383      -66.984589      -17.199984
 H         -26.416204      -66.357910      -18.671177
 H         -26.487783      -64.773056      -18.030943
