20
 generated by VMD
 C         -13.037457      -28.109612       -3.930476
 N         -13.912145      -27.543125       -4.302828
 H         -10.644973      -29.045172       -2.747966
 H         -10.247090      -27.635815       -3.636336
 C          -9.791367      -28.521032       -3.214988
 C          -9.309301      -29.502781       -4.361794
 C          -8.632116      -28.093782       -2.380222
 C          -8.198598      -28.906832       -5.226913
 C          -7.586994      -27.398333       -3.260458
 C          -7.036257      -28.355894       -4.339778
 H         -10.227228      -29.831163       -4.871490
 H          -8.954952      -30.458118       -3.914051
 H          -8.952057      -27.498482       -1.542909
 H          -8.109319      -28.914925       -1.851291
 H          -8.558463      -27.983334       -5.742822
 H          -7.779087      -29.577274       -5.984354
 H          -6.773365      -26.888639       -2.682319
 H          -8.102582      -26.567165       -3.729384
 H          -6.356962      -27.910524       -5.025799
 H          -6.649932      -29.290976       -3.902628
