20
 generated by VMD
 C         -22.052889      -67.235374      -16.519434
 N         -21.027353      -66.917580      -16.065094
 H         -24.047153      -65.057716      -18.017534
 H         -22.793867      -67.460884      -17.161749
 C         -24.520231      -65.865562      -18.535305
 C         -23.825350      -66.438759      -19.787563
 C         -25.955347      -66.206238      -18.202662
 C         -24.379034      -67.760178      -20.203773
 C         -26.220360      -67.644394      -18.462385
 C         -25.885731      -67.966225      -19.982943
 H         -22.752516      -66.381126      -19.813957
 H         -24.274637      -65.724861      -20.623745
 H         -26.061220      -65.951187      -17.104303
 H         -26.651945      -65.739838      -18.869928
 H         -23.956911      -68.642616      -19.605902
 H         -24.153214      -67.936516      -21.269365
 H         -27.229815      -68.134132      -18.237253
 H         -25.503244      -68.143463      -17.761522
 H         -26.256424      -68.997818      -20.202183
 H         -26.484646      -67.324776      -20.609123
