20
 generated by VMD
 C         -52.929146     -146.703827      -44.607319
 N         -51.840408     -146.805725      -44.861320
 H         -54.111805     -146.252945      -47.390827
 H         -53.968899     -146.682999      -44.388805
 C         -54.065895     -145.411758      -48.017101
 C         -52.936409     -145.334381      -48.968468
 C         -54.917934     -144.187057      -47.610851
 C         -53.411484     -144.519821      -50.273033
 C         -55.348339     -143.440781      -48.896530
 C         -54.175373     -143.207733      -49.970318
 H         -52.553406     -146.405777      -49.185337
 H         -52.188751     -144.787628      -48.341545
 H         -55.813126     -144.717758      -47.124348
 H         -54.343784     -143.470703      -46.932037
 H         -54.140999     -145.283417      -50.743855
 H         -52.397137     -144.526718      -50.786045
 H         -55.733700     -142.335541      -48.672909
 H         -56.142418     -143.974396      -49.373569
 H         -54.556213     -142.641464      -50.925896
 H         -53.474663     -142.447327      -49.495842
