20
 generated by VMD
 C         -12.728955      -27.576696       -1.715341
 N         -11.718291      -27.141212       -1.892443
 H         -10.388185      -26.020718       -4.520791
 H          -8.936140      -25.736813       -5.440553
 C          -9.342199      -26.216635       -4.524517
 C          -8.989364      -27.685249       -4.452549
 C          -8.683900      -25.411161       -3.360004
 C          -7.545046      -28.026861       -4.201798
 C          -7.195772      -25.756807       -3.296420
 C          -7.022318      -27.251968       -2.993227
 H          -9.233214      -28.158569       -5.403156
 H          -9.624082      -28.041765       -3.632313
 H          -8.789668      -24.346054       -3.561939
 H          -9.147326      -25.727964       -2.394439
 H          -6.928987      -27.801306       -5.094774
 H          -7.419766      -29.123604       -3.958192
 H          -6.689882      -25.164312       -2.507076
 H          -6.638511      -25.518616       -4.246284
 H          -5.965719      -27.467098       -2.803049
 H          -7.510097      -27.556875       -2.074460
