20
 generated by VMD
 C         -13.379183      -45.061584       -6.028872
 N         -14.326813      -44.543438       -6.266341
 H         -14.910804      -44.488640       -9.079558
 H         -14.560134      -43.885338      -10.768881
 C         -15.321280      -44.305683      -10.116247
 C         -16.464500      -43.289352      -10.109274
 C         -15.707314      -45.615593      -10.735615
 C         -16.979256      -43.114357      -11.541549
 C         -16.160339      -45.535149      -12.196031
 C         -17.242037      -44.439625      -12.280739
 H         -16.107367      -42.300167       -9.775911
 H         -17.238718      -43.687847       -9.501255
 H         -14.829085      -46.239105      -10.824216
 H         -16.489729      -46.110275      -10.145897
 H         -16.209867      -42.519180      -12.072454
 H         -17.892591      -42.484947      -11.530007
 H         -16.565817      -46.552235      -12.410207
 H         -15.356397      -45.301399      -12.826694
 H         -17.424410      -44.166225      -13.356906
 H         -18.226725      -44.877579      -11.973498
