20
 generated by VMD
 C         -60.227608     -156.466965      -55.805374
 N         -60.833656     -155.450699      -55.898655
 H         -59.768082     -157.791977      -52.980862
 H         -59.665447     -157.366837      -55.836754
 C         -58.792542     -157.912857      -52.664421
 C         -57.861145     -156.769104      -52.558834
 C         -58.282494     -159.120255      -52.025360
 C         -57.374020     -156.563004      -51.147800
 C         -57.650646     -159.019241      -50.667343
 C         -56.682247     -157.917923      -50.569542
 H         -58.432453     -156.001984      -53.176041
 H         -56.972549     -156.843140      -53.229774
 H         -59.181370     -159.815063      -52.002953
 H         -57.518204     -159.683121      -52.654091
 H         -58.153275     -156.204254      -50.531540
 H         -56.539841     -155.827667      -51.078388
 H         -57.018375     -159.986481      -50.443340
 H         -58.486164     -159.018936      -49.909889
 H         -56.396622     -157.744095      -49.615704
 H         -55.725128     -158.146637      -51.190823
