20
 generated by VMD
 C         -50.204239     -145.188812      -44.770706
 N         -49.565121     -144.275818      -44.318920
 H         -52.790142     -142.785080      -45.862518
 H         -50.748734     -145.965744      -45.332977
 C         -53.324577     -142.644119      -46.800995
 C         -52.469086     -142.623917      -48.004913
 C         -54.610870     -141.873901      -46.759800
 C         -53.302479     -142.868225      -49.210670
 C         -55.439213     -142.158615      -47.976223
 C         -54.599934     -141.976166      -49.263771
 H         -51.737286     -143.447571      -48.008106
 H         -51.850994     -141.610123      -48.165718
 H         -54.997917     -142.288834      -45.788090
 H         -54.268539     -140.705551      -46.611362
 H         -53.590046     -143.989777      -49.257771
 H         -52.627125     -142.671768      -50.109150
 H         -56.300884     -141.454895      -47.996059
 H         -55.996174     -143.196274      -47.942287
 H         -55.187721     -142.166458      -50.222191
 H         -54.205479     -140.876877      -49.458649
