20
 generated by VMD
 C         -31.054539      -74.923988      -21.644127
 N         -31.676231      -75.943985      -21.781313
 H         -28.568424      -76.442787      -21.045948
 H         -30.469950      -74.010216      -21.783072
 C         -27.536932      -76.105362      -21.155210
 C         -26.784821      -77.121635      -21.954775
 C         -26.874796      -74.826820      -20.605476
 C         -25.721069      -76.484138      -22.860886
 C         -25.867105      -74.237503      -21.620949
 C         -24.925200      -75.337822      -22.276413
 H         -27.311941      -77.740051      -22.637861
 H         -26.301708      -77.799416      -21.245579
 H         -27.545286      -74.069023      -20.361494
 H         -26.333258      -75.105347      -19.768663
 H         -26.296217      -76.208015      -23.729809
 H         -24.996933      -77.244652      -23.152287
 H         -25.296537      -73.391159      -21.233152
 H         -26.455677      -73.919662      -22.453527
 H         -24.083330      -74.946480      -22.865204
 H         -24.347687      -75.810783      -21.464663
