20
 generated by VMD
 C         -29.518341      -74.690178      -19.877954
 N         -30.612589      -74.582626      -20.268620
 H         -26.122919      -73.667175      -18.959919
 H         -28.546312      -74.339928      -19.468946
 C         -25.790819      -73.559509      -19.950962
 C         -25.396057      -74.773811      -20.791262
 C         -25.373299      -72.172279      -20.514303
 C         -26.087431      -74.688675      -22.099161
 C         -26.124617      -72.063652      -21.851852
 C         -25.648289      -73.300797      -22.699583
 H         -25.793715      -75.634064      -20.291216
 H         -24.361843      -74.795197      -20.979572
 H         -25.798708      -71.296066      -19.918238
 H         -24.277977      -72.155991      -20.673157
 H         -27.155535      -74.666245      -22.099022
 H         -25.720224      -75.584511      -22.589775
 H         -25.792652      -71.187508      -22.507042
 H         -27.256548      -72.103355      -21.807041
 H         -26.238113      -73.215302      -23.655321
 H         -24.574183      -73.206970      -22.861708
