20
 generated by VMD
 C         -68.959358     -194.876694      -65.498695
 N         -68.629051     -194.403595      -64.504303
 H         -71.183968     -194.111969      -68.001884
 H         -69.342941     -195.349808      -66.330727
 C         -72.032860     -193.767487      -67.369904
 C         -71.715660     -192.540588      -66.499702
 C         -73.365807     -194.342865      -67.276039
 C         -72.814964     -192.226517      -65.472313
 C         -74.504883     -193.338089      -67.008820
 C         -74.093941     -192.030655      -66.253700
 H         -71.698448     -191.683823      -67.203209
 H         -70.786438     -192.551910      -66.020592
 H         -73.549393     -195.061615      -68.134720
 H         -73.336639     -195.080109      -66.500069
 H         -72.532066     -191.347946      -64.934807
 H         -72.914818     -193.063843      -64.754822
 H         -75.339149     -193.854645      -66.568626
 H         -74.870659     -192.934448      -67.955231
 H         -74.083618     -191.103516      -66.917191
 H         -74.938194     -191.897247      -65.507179
