20
 generated by VMD
 C         -60.205372     -156.188950      -55.752350
 N         -60.583229     -155.074326      -55.545650
 H         -59.936523     -157.889160      -52.615566
 H         -59.870525     -157.202530      -56.039238
 C         -58.943359     -157.715408      -52.128479
 C         -58.262501     -156.341660      -52.178337
 C         -58.112289     -158.854156      -51.675224
 C         -57.172878     -156.037613      -51.083008
 C         -56.976425     -158.535904      -50.659283
 C         -56.193359     -157.228348      -51.045158
 H         -58.981907     -155.570740      -52.257416
 H         -57.810925     -156.535950      -53.153061
 H         -58.829147     -159.596542      -51.263107
 H         -57.731827     -159.335632      -52.635120
 H         -57.667107     -156.031281      -50.040131
 H         -56.744354     -155.098251      -51.356258
 H         -56.363216     -159.461426      -50.744961
 H         -57.452339     -158.472076      -49.556862
 H         -55.460472     -157.089203      -50.131519
 H         -55.737114     -157.309296      -51.980442
