20
 generated by VMD
 C         -38.494244     -108.825523      -36.676247
 N         -37.327946     -108.788055      -36.656120
 H         -41.473671     -109.599205      -36.082855
 H         -39.532467     -108.753960      -36.735615
 C         -42.039303     -110.464767      -35.682343
 C         -41.496033     -111.842712      -35.785141
 C         -42.695911     -110.180420      -34.396408
 C         -40.590088     -112.343513      -34.565899
 C         -41.947495     -110.655769      -33.015182
 C         -41.417625     -112.219025      -33.315201
 H         -41.011265     -111.898132      -36.766445
 H         -42.367764     -112.572128      -35.972469
 H         -42.786308     -109.086052      -34.336689
 H         -43.657261     -110.603058      -34.433151
 H         -39.766407     -111.719261      -34.612816
 H         -40.133648     -113.398232      -34.604660
 H         -42.697601     -110.596748      -32.194305
 H         -41.058884     -110.112602      -32.756313
 H         -40.841312     -112.494057      -32.423187
 H         -42.308178     -112.739326      -33.432106
