20
 generated by VMD
 C         -60.074688     -171.388794      -55.301174
 N         -59.415485     -172.281708      -54.955097
 H         -63.091717     -170.531372      -56.538189
 H         -60.684063     -170.542297      -55.536072
 C         -63.374424     -169.471710      -56.816410
 C         -62.510071     -168.424179      -57.468899
 C         -64.929451     -169.127625      -56.795124
 C         -63.090267     -167.953247      -58.785164
 C         -65.315819     -168.637985      -58.144508
 C         -64.521286     -167.462830      -58.612408
 H         -61.388157     -168.885513      -57.610706
 H         -62.414566     -167.663467      -56.741291
 H         -65.469986     -169.954437      -56.311935
 H         -65.067909     -168.309845      -56.107937
 H         -63.117985     -168.692429      -59.613960
 H         -62.517349     -167.028320      -59.217381
 H         -66.329155     -168.322784      -58.198986
 H         -65.326874     -169.487900      -58.819939
 H         -64.811874     -166.977112      -59.548702
 H         -64.638733     -166.654953      -57.853230
