20
 generated by VMD
 C         -31.331844      -76.995132      -24.971933
 N         -32.118790      -77.057159      -25.859100
 H         -29.006006      -76.794083      -21.964716
 H         -30.990055      -76.963310      -23.832575
 C         -28.465282      -77.745239      -22.151772
 C         -27.475630      -77.998253      -23.236704
 C         -28.846870      -78.883842      -21.258032
 C         -26.230101      -78.595413      -22.627895
 C         -27.528772      -79.385475      -20.572989
 C         -26.548315      -79.804123      -21.676306
 H         -27.174726      -77.049011      -23.569361
 H         -27.900135      -78.657051      -23.948719
 H         -29.495272      -78.575760      -20.475361
 H         -29.341728      -79.611252      -21.878670
 H         -25.598467      -77.863800      -22.100567
 H         -25.596567      -78.913818      -23.443115
 H         -27.675917      -80.135376      -19.841009
 H         -27.149239      -78.568489      -20.022350
 H         -25.549107      -80.085503      -21.213491
 H         -26.768002      -80.731567      -22.212559
