20
 generated by VMD
 C         -73.899315     -201.392151      -65.312340
 N         -72.810555     -201.093384      -65.561417
 H         -75.242844     -198.095337      -66.918991
 H         -74.862061     -201.904541      -65.232056
 C         -74.585411     -197.580276      -67.611992
 C         -74.692299     -196.150146      -67.765236
 C         -73.889046     -198.291306      -68.735359
 C         -73.512703     -195.487061      -68.544136
 C         -73.708305     -197.454315      -70.024437
 C         -72.897415     -196.191330      -69.753464
 H         -74.759804     -195.691925      -66.749641
 H         -75.644882     -195.828308      -68.246971
 H         -72.958511     -198.741760      -68.338203
 H         -74.386192     -199.252014      -69.095741
 H         -72.688843     -195.221420      -67.892494
 H         -73.847763     -194.495285      -68.890984
 H         -74.706734     -197.208237      -70.282318
 H         -73.214203     -198.144226      -70.779640
 H         -71.921692     -196.582153      -69.521896
 H         -72.748901     -195.493820      -70.710800
