20
 generated by VMD
 C         -10.696027      -37.410080       -7.952814
 N         -10.704103      -36.277020       -7.915096
 H         -13.403551      -37.458782       -7.728833
 H         -14.378163      -38.214813       -6.450855
 C         -14.011462      -38.348125       -7.489529
 C         -13.173022      -39.643696       -7.432442
 C         -15.156291      -38.430717       -8.509421
 C         -13.993786      -40.887367       -7.360945
 C         -16.011068      -39.680164       -8.246056
 C         -15.113281      -40.897396       -8.367773
 H         -12.483397      -39.692436       -6.606260
 H         -12.574726      -39.672398       -8.294715
 H         -15.836656      -37.522896       -8.494483
 H         -14.752842      -38.462769       -9.510228
 H         -14.394087      -40.993580       -6.311801
 H         -13.402051      -41.818001       -7.447490
 H         -16.917473      -39.684990       -8.940199
 H         -16.356236      -39.552959       -7.247160
 H         -15.740977      -41.790558       -8.164439
 H         -14.664411      -40.982761       -9.336126
