20
 generated by VMD
 C         -68.201744     -179.373398      -58.396114
 N         -67.323517     -178.928986      -57.789131
 H         -66.084930     -176.628754      -59.100494
 H         -69.038834     -179.819717      -58.954720
 C         -65.507126     -175.742722      -59.471226
 C         -66.015213     -174.774979      -60.413441
 C         -63.971809     -175.962357      -59.674210
 C         -65.242561     -173.467712      -60.373913
 C         -63.196678     -174.665771      -59.686447
 C         -63.725098     -173.624756      -60.608730
 H         -67.042984     -174.502823      -60.252998
 H         -65.970131     -175.228424      -61.530285
 H         -63.628468     -176.654251      -58.943924
 H         -63.970589     -176.489090      -60.669498
 H         -65.277763     -172.960083      -59.443386
 H         -65.606453     -172.829697      -61.186581
 H         -62.110226     -174.896011      -59.821819
 H         -63.356949     -174.163452      -58.774750
 H         -63.226337     -172.692871      -60.782310
 H         -63.823750     -173.980972      -61.701283
