20
 generated by VMD
 C         -29.784796      -91.245567      -25.286180
 N         -28.994617      -92.026764      -24.959543
 H         -32.466091      -90.432449      -26.642809
 H         -30.375978      -90.402992      -25.665157
 C         -33.150967      -90.479927      -27.518776
 C         -34.188709      -91.545868      -27.331865
 C         -33.177402      -89.558723      -28.761246
 C         -35.612534      -90.907669      -27.564785
 C         -34.491028      -88.875099      -28.763119
 C         -35.602474      -89.947334      -28.743881
 H         -34.221680      -92.109261      -26.340265
 H         -34.014084      -92.409897      -28.074654
 H         -32.348980      -88.910622      -28.718523
 H         -33.015652      -90.133347      -29.661211
 H         -35.870823      -90.327965      -26.650288
 H         -36.424488      -91.567810      -27.785723
 H         -34.423241      -88.225288      -29.613834
 H         -34.513294      -88.152679      -27.934395
 H         -36.631138      -89.667282      -28.946745
 H         -35.420990      -90.517334      -29.687201
