20
 generated by VMD
 C         -70.040237     -182.934677      -65.954933
 N         -71.116219     -183.254318      -65.660225
 H         -68.201607     -182.693283      -63.014801
 H         -69.053543     -182.650696      -66.228668
 C         -67.437050     -182.563583      -62.220390
 C         -67.670883     -183.455917      -61.001904
 C         -67.129745     -181.032578      -61.951103
 C         -66.642311     -183.097610      -59.797131
 C         -66.247520     -180.902878      -60.702126
 C         -66.756615     -181.621613      -59.443871
 H         -67.511688     -184.467453      -61.307041
 H         -68.628441     -183.159225      -60.516273
 H         -66.530861     -180.734634      -62.877224
 H         -68.047920     -180.415939      -61.928005
 H         -65.559021     -183.346298      -60.097168
 H         -66.981621     -183.941544      -59.104034
 H         -66.168571     -179.817505      -60.495674
 H         -65.236366     -181.257538      -60.742023
 H         -66.148315     -181.461136      -58.464828
 H         -67.797470     -181.347961      -59.294559
