20
 generated by VMD
 C         -10.410435      -37.216076       -7.497460
 N         -10.540900      -36.308651       -8.145401
 H         -13.328492      -37.714832       -7.680451
 H         -14.470193      -38.410374       -6.452690
 C         -14.088021      -38.549549       -7.452756
 C         -13.260950      -39.823410       -7.641696
 C         -15.209520      -38.524532       -8.538302
 C         -14.146712      -41.018734       -7.343923
 C         -16.129097      -39.798130       -8.492559
 C         -15.314301      -41.074902       -8.348578
 H         -12.340279      -39.794994       -7.049740
 H         -12.870446      -39.923309       -8.645426
 H         -15.871457      -37.626896       -8.466126
 H         -14.807678      -38.410217       -9.534904
 H         -14.519822      -40.930214       -6.266472
 H         -13.678500      -41.996044       -7.320440
 H         -16.753614      -39.798962       -9.453468
 H         -16.793884      -39.656223       -7.674880
 H         -16.021011      -41.829742       -8.009212
 H         -14.877290      -41.397816       -9.271132
