20
 generated by VMD
 C         -50.177128     -129.292282      -43.003590
 N         -50.611603     -128.357941      -43.577320
 H         -48.644737     -128.063187      -39.894760
 H         -49.532726     -130.106354      -42.690556
 C         -47.671822     -127.964844      -40.309135
 C         -46.553562     -128.900482      -39.955578
 C         -47.323437     -126.795403      -40.987091
 C         -45.559177     -129.069504      -41.105919
 C         -46.261353     -126.954231      -42.128815
 C         -44.993107     -127.702950      -41.610703
 H         -46.926399     -129.937531      -39.635765
 H         -46.180180     -128.507767      -39.020096
 H         -48.195587     -126.465271      -41.543163
 H         -47.051205     -126.016937      -40.337078
 H         -46.173386     -129.450729      -41.914246
 H         -44.796738     -129.765182      -40.757076
 H         -45.996925     -126.042824      -42.587612
 H         -46.785259     -127.587524      -42.831646
 H         -44.274731     -127.880791      -42.411411
 H         -44.473507     -127.243561      -40.709507
