20
 generated by VMD
 C         -68.665627     -193.907257      -66.580406
 N         -67.734573     -193.763992      -65.951385
 H         -70.065109     -190.970001      -65.951317
 H         -69.366974     -194.033310      -67.401863
 C         -71.150734     -191.003876      -65.741745
 C         -72.210670     -190.307144      -66.579117
 C         -71.447914     -191.393188      -64.390839
 C         -73.437241     -191.305008      -66.670105
 C         -72.937859     -191.358093      -64.054268
 C         -73.770683     -191.897812      -65.246765
 H         -71.753616     -190.021484      -67.611542
 H         -72.486015     -189.394058      -66.113914
 H         -71.089287     -192.496277      -64.252563
 H         -70.884140     -190.854721      -63.646862
 H         -73.224434     -192.248062      -67.308708
 H         -74.329910     -190.821762      -67.188103
 H         -73.299797     -190.341476      -63.949436
 H         -73.222183     -191.973221      -63.140400
 H         -73.682983     -192.931015      -65.326813
 H         -74.857170     -191.776062      -64.944107
