20
 generated by VMD
 C         -18.343361      -49.064983       -7.611764
 N         -19.153267      -49.796200       -7.783685
 H         -16.196394      -47.373657      -10.021253
 H         -16.742178      -48.948978      -10.737203
 C         -16.473774      -47.862839      -10.977873
 C         -15.241285      -47.862797      -11.939232
 C         -17.638813      -47.122818      -11.664553
 C         -15.521367      -48.053711      -13.452563
 C         -17.937189      -47.798080      -12.964725
 C         -16.813875      -47.434650      -13.886285
 H         -14.522184      -48.656616      -11.570499
 H         -14.596606      -46.971008      -11.776154
 H         -18.553596      -47.049381      -11.101538
 H         -17.383770      -46.065220      -11.760466
 H         -15.424282      -49.116810      -13.710288
 H         -14.750117      -47.607399      -14.093219
 H         -18.891499      -47.474899      -13.378904
 H         -17.946009      -48.886597      -12.911018
 H         -17.022934      -47.780918      -14.942486
 H         -16.637257      -46.289734      -13.924296
