20
 generated by VMD
 C         -38.368275     -112.873680      -36.356934
 N         -37.217094     -112.653114      -36.437134
 H         -41.398754     -114.878998      -34.722443
 H         -39.453823     -113.156837      -36.326351
 C         -42.325008     -114.726685      -35.400913
 C         -42.044174     -114.733475      -36.838062
 C         -43.496357     -114.085274      -34.714020
 C         -43.389320     -114.917038      -37.656548
 C         -44.654217     -114.380745      -35.557991
 C         -44.523354     -113.996170      -37.059948
 H         -41.424866     -115.505852      -37.308010
 H         -41.588913     -113.843147      -37.255051
 H         -43.353401     -114.261841      -33.658413
 H         -43.328514     -113.017876      -34.715580
 H         -43.726833     -115.977638      -37.372917
 H         -43.283352     -114.869415      -38.747135
 H         -45.680801     -113.909187      -35.269123
 H         -44.976768     -115.520058      -35.407581
 H         -45.412746     -114.171310      -37.686359
 H         -44.234409     -112.955704      -37.153805
