20
 generated by VMD
 C         -21.581860      -66.610321      -16.789495
 N         -20.926579      -66.913643      -15.885062
 H         -24.090097      -64.754951      -17.997683
 H         -22.444798      -66.254631      -17.497919
 C         -24.636545      -65.357445      -18.636328
 C         -24.068644      -65.901093      -19.861380
 C         -25.903595      -65.957443      -17.982143
 C         -24.374907      -67.402565      -20.151684
 C         -25.814796      -67.541855      -18.077284
 C         -25.698574      -67.967079      -19.550098
 H         -22.886721      -65.741600      -19.839258
 H         -24.385748      -65.203819      -20.621944
 H         -26.129782      -65.656654      -16.987648
 H         -26.716949      -65.690239      -18.693764
 H         -23.617294      -68.006416      -19.749783
 H         -24.366343      -67.712990      -21.191568
 H         -26.744892      -67.809601      -17.663309
 H         -24.986584      -68.046555      -17.549822
 H         -25.489912      -69.052933      -19.421478
 H         -26.631966      -67.875763      -20.137236
