20
 generated by VMD
 C         -69.335388     -180.359116      -59.847134
 N         -68.833763     -181.227188      -60.435081
 H         -67.365799     -177.597549      -59.553223
 H         -69.751923     -179.581604      -59.233418
 C         -66.431496     -177.013107      -59.883244
 C         -65.990120     -176.880936      -61.391640
 C         -65.359306     -176.933487      -58.778011
 C         -64.832130     -175.793854      -61.582710
 C         -64.120361     -176.032944      -59.232250
 C         -63.665279     -176.083481      -60.714729
 H         -66.798889     -176.446396      -61.952343
 H         -65.552177     -177.842178      -61.800129
 H         -65.716179     -176.637589      -57.798927
 H         -64.900124     -177.996323      -58.632153
 H         -65.153503     -174.734924      -61.381786
 H         -64.495148     -175.856018      -62.689384
 H         -63.235710     -176.462402      -58.647182
 H         -64.144051     -175.000427      -58.802223
 H         -62.843681     -175.400696      -60.736023
 H         -63.352039     -177.156937      -60.989998
