20
 generated by VMD
 C         -50.366661     -128.960098      -43.597809
 N         -50.819118     -129.516449      -44.493210
 H         -48.902466     -128.232101      -40.361092
 H         -50.001358     -128.504135      -42.707142
 C         -47.823105     -128.117401      -40.251125
 C         -47.019173     -129.373840      -40.099251
 C         -47.068039     -126.976166      -40.730545
 C         -46.088161     -129.724213      -41.211845
 C         -46.053493     -127.211098      -41.867718
 C         -45.174770     -128.487549      -41.701984
 H         -47.766823     -130.246658      -39.950218
 H         -46.495655     -129.407669      -39.189499
 H         -47.808418     -126.237419      -40.961826
 H         -46.476265     -126.609978      -39.782429
 H         -46.619125     -130.171631      -42.060329
 H         -45.408783     -130.498932      -40.981476
 H         -45.438118     -126.265526      -42.009842
 H         -46.690838     -127.282928      -42.812809
 H         -44.786247     -128.727982      -42.706341
 H         -44.349369     -128.293106      -40.937008
