20
 generated by VMD
 C         -58.526806     -162.012360      -56.441132
 N         -57.447731     -161.625351      -56.382980
 H         -59.448570     -164.532455      -55.484451
 H         -59.563042     -162.325592      -56.447582
 C         -60.318787     -164.112213      -54.946556
 C         -60.146854     -163.772018      -53.553226
 C         -61.606140     -164.399246      -55.519314
 C         -61.207451     -162.733658      -53.144638
 C         -62.644554     -163.409775      -55.019382
 C         -62.611958     -163.012848      -53.533802
 H         -59.135220     -163.307098      -53.440907
 H         -60.260433     -164.673935      -52.834900
 H         -61.506672     -164.487793      -56.577576
 H         -62.008274     -165.336456      -55.059639
 H         -61.000648     -161.686829      -53.645664
 H         -61.248917     -162.628891      -52.055698
 H         -63.705193     -163.628113      -55.296581
 H         -62.326351     -162.438095      -55.482018
 H         -63.267353     -162.113174      -53.515762
 H         -63.177116     -163.814529      -52.983772
