20
 generated by VMD
 C         -73.842842     -201.566940      -65.336922
 N         -72.842949     -201.072266      -65.609474
 H         -74.944931     -198.143646      -66.914314
 H         -74.835167     -201.823349      -64.894142
 C         -74.705437     -197.587662      -67.802750
 C         -74.713692     -196.084793      -67.825394
 C         -74.058746     -198.400543      -68.808464
 C         -73.491135     -195.403793      -68.534248
 C         -73.689255     -197.591660      -70.062912
 C         -72.819374     -196.318359      -69.514740
 H         -74.847664     -195.536987      -66.869766
 H         -75.627197     -195.790100      -68.336304
 H         -73.210381     -198.976852      -68.339592
 H         -74.741440     -199.288925      -69.122444
 H         -72.745155     -195.146683      -67.787148
 H         -73.668190     -194.435699      -69.009087
 H         -74.591736     -197.369308      -70.528694
 H         -73.008858     -198.268692      -70.642586
 H         -71.830124     -196.643509      -69.282173
 H         -72.739876     -195.647385      -70.492828
