20
 generated by VMD
 C         -21.057362      -52.286026       -9.623480
 N         -21.340956      -52.448116      -10.736601
 H         -19.124075      -50.353642      -11.547853
 H         -20.674116      -51.831867       -8.766584
 C         -18.362301      -50.101200      -12.301365
 C         -17.797832      -51.432743      -12.749413
 C         -17.464844      -48.890766      -12.267863
 C         -16.879395      -51.386894      -13.932954
 C         -16.456903      -48.992073      -13.401868
 C         -15.787045      -50.371029      -13.673270
 H         -18.556776      -52.206432      -12.813602
 H         -17.178312      -51.850735      -11.874548
 H         -17.979677      -47.905376      -12.344823
 H         -16.853024      -48.912525      -11.353367
 H         -17.480043      -51.035866      -14.793465
 H         -16.409435      -52.353844      -14.135335
 H         -15.651560      -48.270664      -13.018480
 H         -16.836317      -48.618828      -14.354480
 H         -15.026571      -50.428699      -14.402948
 H         -15.303834      -50.622028      -12.758964
