20
 generated by VMD
 C         -54.479954     -148.195068      -45.322929
 N         -54.506786     -148.363327      -44.186722
 H         -54.528454     -147.912430      -48.506752
 H         -54.527081     -148.174835      -46.373131
 C         -54.342422     -147.018127      -49.135864
 C         -53.253414     -146.785980      -50.069828
 C         -55.040340     -145.869003      -48.521709
 C         -53.337135     -145.483261      -50.819046
 C         -55.113575     -144.604416      -49.294640
 C         -53.813904     -144.311600      -49.940556
 H         -53.162350     -147.600372      -50.759045
 H         -52.382484     -146.717941      -49.344498
 H         -56.007999     -146.239685      -48.477669
 H         -54.644188     -145.768539      -47.515182
 H         -54.057590     -145.648422      -51.662292
 H         -52.426765     -145.298309      -51.315842
 H         -55.507149     -143.731033      -48.638218
 H         -55.791653     -144.670914      -50.071243
 H         -54.033367     -143.423660      -50.589401
 H         -52.964985     -143.884644      -49.380623
