20
 generated by VMD
 C         -40.789959     -103.850098      -37.299778
 N         -40.545563     -104.692154      -36.521168
 H         -39.785328     -106.213776      -34.333988
 H         -41.169266     -103.000854      -37.842323
 C         -39.362160     -106.850082      -33.534378
 C         -38.139446     -106.316566      -32.837105
 C         -39.906906     -108.284088      -33.224613
 C         -38.005821     -106.883598      -31.524267
 C         -39.584694     -108.874252      -31.853849
 C         -38.140644     -108.370354      -31.557970
 H         -38.082783     -105.224136      -33.004997
 H         -37.253220     -106.647400      -33.358879
 H         -40.908672     -108.145493      -33.653633
 H         -39.339157     -108.980011      -33.928883
 H         -38.706852     -106.519485      -30.792831
 H         -37.039928     -106.756966      -31.089338
 H         -39.741886     -109.941376      -31.852129
 H         -40.332527     -108.444695      -31.086626
 H         -37.916252     -108.855011      -30.490522
 H         -37.394917     -108.753693      -32.189735
