20
 generated by VMD
 C         -20.011570      -50.098232       -9.558991
 N         -19.731546      -51.207561       -9.632752
 H         -16.882380      -48.366909      -10.070874
 H         -20.114332      -49.099754       -9.190084
 C         -16.732801      -48.487820      -11.149457
 C         -15.626285      -49.379208      -11.625795
 C         -17.452574      -47.461891      -12.025804
 C         -16.135386      -50.024017      -12.878721
 C         -17.894613      -48.174019      -13.266313
 C         -16.791843      -48.983898      -13.866419
 H         -15.317590      -50.120922      -10.914098
 H         -14.771446      -48.689182      -11.786197
 H         -18.290615      -46.996838      -11.478261
 H         -16.763275      -46.639736      -12.208412
 H         -16.941467      -50.705372      -12.597010
 H         -15.318295      -50.565235      -13.388599
 H         -18.251129      -47.461308      -13.970574
 H         -18.702320      -48.883327      -13.028186
 H         -17.269529      -49.562561      -14.714262
 H         -15.925378      -48.376499      -14.305036
