20
 generated by VMD
 C         -67.005295     -177.832779      -57.114468
 N         -67.819405     -178.595764      -56.822247
 H         -63.927433     -176.064453      -58.939198
 H         -66.280945     -177.123962      -57.413368
 C         -64.168869     -175.135101      -59.464344
 C         -65.462212     -174.422150      -59.481155
 C         -63.208515     -174.594040      -60.540562
 C         -65.360809     -172.901749      -59.392353
 C         -62.976704     -173.148010      -60.404251
 C         -64.288055     -172.308319      -60.325165
 H         -66.104759     -174.780319      -58.714142
 H         -65.910332     -174.644058      -60.453461
 H         -62.326958     -175.259796      -60.535431
 H         -63.639275     -174.759399      -61.515636
 H         -65.093521     -172.575317      -58.387531
 H         -66.343552     -172.485718      -59.660751
 H         -62.241119     -172.671814      -61.189320
 H         -62.453880     -173.127502      -59.465260
 H         -64.041122     -171.344376      -59.874233
 H         -64.526131     -172.112320      -61.396969
