20
 generated by VMD
 C         -41.090126     -102.455605      -35.129856
 N         -41.560333     -103.113022      -35.959759
 H         -39.762203     -104.276176      -33.053921
 H         -41.007423     -101.832199      -34.298710
 C         -38.874184     -104.843178      -32.502682
 C         -37.360264     -104.377556      -32.953232
 C         -38.788654     -106.177040      -31.845823
 C         -36.378864     -104.391319      -31.740719
 C         -37.767601     -106.216858      -30.767050
 C         -36.408298     -105.752136      -31.090899
 H         -37.484100     -103.383362      -33.365524
 H         -37.049110     -105.136887      -33.737347
 H         -39.754620     -106.514740      -31.433426
 H         -38.496548     -106.892555      -32.668854
 H         -36.730209     -103.631035      -30.989290
 H         -35.379585     -104.193504      -32.161575
 H         -37.830917     -107.145691      -30.325857
 H         -37.918827     -105.521385      -29.905577
 H         -35.985031     -105.614868      -30.089745
 H         -35.718292     -106.495247      -31.624466
