20
 generated by VMD
 C         -43.251259     -121.193207      -35.564125
 N         -43.146595     -120.519768      -34.642536
 H         -44.320930     -122.013985      -38.799702
 H         -43.193615     -121.729347      -36.561649
 C         -44.518211     -120.939095      -39.205482
 C         -43.316578     -120.258774      -39.704132
 C         -45.519028     -120.083412      -38.543350
 C         -43.605793     -118.994446      -40.537014
 C         -45.885483     -118.835800      -39.372131
 C         -44.634510     -118.113007      -39.827030
 H         -42.741978     -120.914795      -40.406517
 H         -42.587170     -120.079475      -38.905170
 H         -46.476593     -120.563347      -38.307869
 H         -45.054008     -119.632759      -37.643059
 H         -44.080200     -119.276932      -41.429428
 H         -42.609600     -118.514664      -40.660545
 H         -46.610325     -118.157738      -38.918671
 H         -46.257427     -119.268768      -40.311924
 H         -44.717960     -117.286453      -40.553326
 H         -44.153324     -117.650665      -38.927525
