20
 generated by VMD
 C         -21.976652      -55.444473      -17.502941
 N         -21.260700      -55.816219      -18.380661
 H         -21.547476      -56.848835      -14.235865
 H         -22.723850      -54.935635      -16.951843
 C         -21.268211      -57.894188      -14.282893
 C         -21.403385      -58.821751      -13.049891
 C         -21.146152      -58.462936      -15.558853
 C         -20.825140      -60.232166      -13.215814
 C         -20.264225      -59.789314      -15.698421
 C         -19.868210      -60.385422      -14.327299
 H         -22.470854      -58.903328      -12.697304
 H         -20.794064      -58.415787      -12.268840
 H         -22.153797      -58.534901      -15.990262
 H         -20.684603      -57.720474      -16.200844
 H         -21.693474      -60.850563      -13.433283
 H         -20.418232      -60.643108      -12.318313
 H         -19.285269      -59.571659      -16.235218
 H         -20.782713      -60.537201      -16.331234
 H         -19.431881      -61.455711      -14.360528
 H         -19.021885      -59.742516      -13.968189
