20
 generated by VMD
 C         -11.399756      -37.416473       -7.133645
 N         -11.402197      -37.793713       -8.175528
 H         -12.413532      -40.452484       -8.323029
 H         -13.559666      -39.974613       -7.144444
 C         -13.493288      -40.463928       -8.115877
 C         -14.047367      -41.833649       -7.960948
 C         -14.213682      -39.725163       -9.174426
 C         -15.579834      -41.880486       -7.859660
 C         -15.729259      -39.669762       -8.914573
 C         -16.220135      -41.054916       -8.933470
 H         -13.633730      -42.284733       -7.016245
 H         -13.709473      -42.551590       -8.695623
 H         -13.856730      -38.668064       -9.286103
 H         -14.065760      -40.135891      -10.170732
 H         -15.942813      -41.541546       -6.895635
 H         -15.903497      -42.943169       -7.875202
 H         -16.191973      -39.135952       -9.734548
 H         -15.995492      -39.178066       -7.932235
 H         -17.343260      -41.052315       -8.846247
 H         -15.967581      -41.549072       -9.888608
