20
 generated by VMD
 C         -70.679657     -181.905319      -63.931728
 N         -69.691498     -182.530869      -63.846462
 H         -68.772522     -180.969864      -61.665501
 H         -71.582344     -181.383209      -64.088585
 C         -67.851257     -180.686768      -61.067200
 C         -66.936646     -181.903992      -60.799957
 C         -67.336472     -179.336395      -60.766926
 C         -65.498230     -181.626144      -60.982494
 C         -65.811867     -179.172882      -60.749470
 C         -65.024017     -180.435928      -60.157120
 H         -67.283394     -182.609116      -61.536423
 H         -67.155792     -182.203735      -59.872997
 H         -67.783463     -178.510162      -61.487423
 H         -67.536934     -179.041458      -59.758537
 H         -65.370827     -181.638840      -62.088802
 H         -65.050095     -182.625961      -60.710659
 H         -65.615219     -178.302139      -60.088726
 H         -65.411858     -178.988708      -61.725555
 H         -63.900845     -180.205170      -60.167473
 H         -65.255081     -180.666214      -59.169281
