20
 generated by VMD
 C         -69.691093     -196.334473      -65.195732
 N         -68.566330     -196.641434      -65.368706
 H         -72.186798     -194.122971      -65.129395
 H         -70.639137     -195.737946      -65.019379
 C         -72.184875     -193.900391      -66.228561
 C         -72.202515     -192.419052      -66.572441
 C         -72.882988     -194.901108      -67.108955
 C         -73.729774     -191.948578      -66.637581
 C         -74.419037     -194.386734      -67.318558
 C         -74.529884     -192.847565      -67.595123
 H         -71.822769     -192.208359      -67.621124
 H         -71.777130     -191.957901      -65.695564
 H         -72.396599     -195.006058      -68.055618
 H         -73.005623     -195.829330      -66.604988
 H         -73.862076     -190.889618      -66.957573
 H         -74.027573     -192.028275      -65.562187
 H         -75.050575     -194.624466      -66.410919
 H         -74.872169     -194.920135      -68.136780
 H         -74.179909     -192.680695      -68.590134
 H         -75.670219     -192.411957      -67.475281
