20
 generated by VMD
 C         -19.077776      -63.113930      -16.909845
 N         -20.212851      -62.853992      -16.975605
 H         -22.692295      -63.981380      -17.067856
 H         -18.019094      -63.508366      -17.170843
 C         -23.689672      -64.219780      -17.276989
 C         -24.200518      -64.102715      -18.679583
 C         -24.500248      -65.133186      -16.321213
 C         -24.600840      -65.486221      -19.307142
 C         -25.015175      -66.414230      -17.017782
 C         -25.599497      -66.176582      -18.393824
 H         -23.724867      -63.362865      -19.412655
 H         -25.143957      -63.503704      -18.682577
 H         -23.750700      -65.350861      -15.530843
 H         -25.349031      -64.647186      -16.052992
 H         -23.768332      -66.214844      -19.487564
 H         -25.079124      -65.434151      -20.267084
 H         -25.718731      -67.027596      -16.365984
 H         -24.104610      -67.025360      -17.080740
 H         -25.903812      -67.143974      -18.947893
 H         -26.436796      -65.518150      -18.302486
