20
 generated by VMD
 C         -50.006981     -142.917191      -45.544796
 N         -48.877850     -143.123199      -45.256100
 H         -52.116852     -139.628723      -45.603619
 H         -51.038780     -142.680069      -45.891861
 C         -52.549026     -140.330627      -46.259830
 C         -52.197853     -140.585587      -47.640175
 C         -54.037258     -140.425766      -45.913109
 C         -52.739189     -141.959595      -48.166599
 C         -54.743317     -141.707184      -46.480885
 C         -54.265682     -142.021027      -47.975521
 H         -51.104710     -140.376724      -47.711143
 H         -52.742485     -139.848373      -48.264740
 H         -54.345951     -140.441238      -44.819996
 H         -54.473763     -139.465317      -46.497383
 H         -52.374413     -142.779114      -47.564556
 H         -52.441811     -142.081818      -49.205574
 H         -55.799137     -141.692413      -46.600933
 H         -54.486763     -142.405792      -45.744701
 H         -54.660458     -142.981140      -48.276619
 H         -54.721638     -141.295227      -48.678230
