20
 generated by VMD
 C         -40.491192     -106.850090      -37.510620
 N         -39.413647     -106.652718      -37.842323
 H         -38.655651     -108.128113      -34.424057
 H         -41.505863     -106.886681      -37.075321
 C         -39.262333     -108.939636      -34.047684
 C         -38.659355     -110.023369      -33.257690
 C         -40.748222     -108.813774      -34.316967
 C         -39.696060     -110.564926      -32.107609
 C         -41.631580     -109.386108      -33.304073
 C         -41.071907     -110.676979      -32.731522
 H         -37.836521     -109.587265      -32.548397
 H         -38.171783     -110.879112      -33.796253
 H         -40.965458     -107.739975      -34.369465
 H         -41.022266     -109.176414      -35.274857
 H         -39.789654     -109.881393      -31.234516
 H         -39.248795     -111.460556      -31.741714
 H         -42.631813     -109.516266      -33.606579
 H         -41.689850     -108.733894      -32.482193
 H         -41.763172     -111.075653      -31.996277
 H         -40.986671     -111.428909      -33.558537
