20
 generated by VMD
 C         -69.245941     -181.328217      -61.228268
 N         -69.695381     -180.266144      -61.219574
 H         -66.623016     -179.342255      -59.410492
 H         -68.751518     -182.309311      -61.283928
 C         -66.251610     -178.432327      -59.830654
 C         -65.715393     -178.570587      -61.137318
 C         -65.577080     -177.504593      -58.842873
 C         -65.160286     -177.326385      -61.787422
 C         -64.950653     -176.264984      -59.354973
 C         -64.263771     -176.578995      -60.726452
 H         -66.323792     -179.013519      -61.878578
 H         -64.903870     -179.236664      -61.150459
 H         -66.317276     -177.356049      -58.019096
 H         -64.861382     -178.238892      -58.435513
 H         -65.905502     -176.646790      -62.048141
 H         -64.644943     -177.595886      -62.674202
 H         -64.281677     -175.965881      -58.534443
 H         -65.657410     -175.471878      -59.527733
 H         -63.812233     -175.690475      -61.259686
 H         -63.377419     -177.328888      -60.621922
