20
 generated by VMD
 C         -79.085854     -208.219055      -75.749023
 N         -78.295868     -207.434906      -75.334915
 H         -78.968422     -210.367325      -73.563683
 H         -79.716873     -208.889542      -76.367188
 C         -78.633919     -210.091522      -72.589432
 C         -77.376877     -209.221573      -72.417664
 C         -78.928963     -211.125076      -71.516296
 C         -77.107353     -208.827927      -70.983932
 C         -78.480698     -210.775803      -70.057236
 C         -77.108322     -210.074127      -70.047005
 H         -77.581444     -208.243774      -72.925171
 H         -76.462395     -209.777588      -72.791603
 H         -80.001595     -211.357361      -71.491394
 H         -78.413055     -212.109238      -71.765182
 H         -77.916183     -208.217941      -70.490807
 H         -76.128235     -208.313522      -70.895676
 H         -78.683678     -211.500656      -69.145767
 H         -79.109795     -209.970734      -69.935760
 H         -76.962181     -209.666672      -69.007500
 H         -76.264946     -210.787323      -70.244835
