20
 generated by VMD
 C         -69.072655     -184.923981      -66.538925
 N         -69.438812     -185.328857      -67.586067
 H         -69.830627     -182.962296      -63.186829
 H         -68.656250     -184.497269      -65.627304
 C         -69.324211     -183.370560      -62.365524
 C         -69.817703     -184.475510      -61.559158
 C         -68.099068     -182.756088      -61.727238
 C         -68.647194     -185.435410      -61.368111
 C         -67.013000     -183.651550      -61.211525
 C         -67.616890     -184.736496      -60.436893
 H         -70.652473     -184.980103      -62.058136
 H         -70.132484     -184.291214      -60.519024
 H         -67.731194     -181.961319      -62.405457
 H         -68.379585     -182.208725      -60.895714
 H         -67.993721     -185.764450      -62.233231
 H         -68.999390     -186.395828      -60.893814
 H         -66.328392     -182.977707      -60.764507
 H         -66.341949     -184.167053      -61.888954
 H         -66.918671     -185.478088      -60.168198
 H         -68.027771     -184.411652      -59.480022
