20
 generated by VMD
 C         -49.938236     -143.401688      -44.544106
 N         -49.241207     -143.495758      -45.421940
 H         -52.085209     -141.105118      -45.415791
 H         -50.666252     -143.461868      -43.774509
 C         -52.705982     -141.339951      -46.277077
 C         -52.102917     -141.594955      -47.751255
 C         -54.180550     -141.107300      -46.111938
 C         -53.123188     -142.211487      -48.755760
 C         -54.984623     -141.850922      -47.182575
 C         -54.561588     -141.702744      -48.584930
 H         -51.252853     -142.250641      -47.633053
 H         -51.843689     -140.619568      -48.081810
 H         -54.466202     -141.491776      -45.134464
 H         -54.367580     -140.108688      -46.294640
 H         -53.226879     -143.420731      -48.579483
 H         -52.817722     -142.112228      -49.854961
 H         -56.032677     -141.504211      -46.882553
 H         -54.972820     -142.976212      -47.018673
 H         -55.242622     -142.323212      -49.262669
 H         -54.718754     -140.621048      -49.027630
