20
 generated by VMD
 C         -51.190250     -130.790329      -46.291092
 N         -50.345432     -130.331635      -47.003597
 H         -48.275589     -132.178299      -44.469868
 H         -51.886806     -131.106720      -45.557579
 C         -48.037632     -132.391739      -43.431976
 C         -48.636524     -133.653091      -42.990982
 C         -48.098148     -131.281418      -42.382446
 C         -48.269222     -134.128860      -41.523689
 C         -47.875660     -131.722946      -40.970802
 C         -48.648602     -132.988937      -40.569736
 H         -48.287418     -134.479675      -43.737686
 H         -49.677322     -133.644302      -43.172447
 H         -47.535645     -130.470825      -42.635445
 H         -49.133385     -130.787231      -42.365604
 H         -47.196617     -134.301041      -41.398399
 H         -48.811344     -135.015732      -41.154369
 H         -48.274006     -130.882568      -40.276123
 H         -46.831490     -131.927567      -40.829720
 H         -48.546906     -133.290161      -39.542042
 H         -49.825127     -132.859680      -40.596432
