20
 generated by VMD
 C         -72.499107     -199.291092      -65.239449
 N         -71.428032     -199.422516      -64.817795
 H         -71.450966     -196.151077      -66.931870
 H         -73.553207     -199.362305      -65.454346
 C         -72.289879     -195.797150      -67.502312
 C         -72.875183     -194.455673      -67.127472
 C         -72.805397     -196.448975      -68.706932
 C         -73.985390     -194.030792      -67.957672
 C         -74.232010     -196.312119      -69.014687
 C         -74.915367     -195.158005      -68.228111
 H         -72.011597     -193.796844      -67.001839
 H         -73.301437     -194.465164      -66.089439
 H         -72.076851     -196.102142      -69.507965
 H         -72.601166     -197.553467      -68.726646
 H         -73.659050     -193.735382      -68.910461
 H         -74.519043     -193.226639      -67.460655
 H         -74.762138     -197.273880      -68.800179
 H         -74.370903     -196.155426      -70.078743
 H         -75.988159     -195.054001      -68.690643
 H         -75.132469     -195.564758      -67.257507
