20
 generated by VMD
 C         -39.471485     -105.544777      -37.134239
 N         -40.594963     -105.849358      -37.209774
 H         -39.294247     -107.706413      -35.092510
 H         -38.394382     -105.490524      -36.893764
 C         -39.319458     -108.570450      -34.382721
 C         -38.325813     -108.769897      -33.223450
 C         -40.788521     -109.339165      -34.317017
 C         -39.022930     -108.902718      -31.882893
 C         -41.242664     -109.366997      -32.917816
 C         -40.176762     -109.844376      -31.905466
 H         -37.583481     -107.846970      -33.171265
 H         -37.650883     -109.651436      -33.518524
 H         -41.516304     -108.901512      -34.908821
 H         -40.550747     -110.285103      -34.812141
 H         -39.248074     -108.055229      -31.320789
 H         -38.293999     -109.445229      -31.314487
 H         -42.022549     -110.178589      -32.957996
 H         -41.685581     -108.415909      -32.613441
 H         -40.711693     -109.968231      -30.857248
 H         -39.906254     -110.842957      -32.207073
