20
 generated by VMD
 C         -60.279449     -156.110947      -56.159008
 N         -60.695988     -155.161865      -55.703495
 H         -59.708469     -157.936142      -52.818344
 H         -59.892525     -156.951630      -56.750946
 C         -58.926159     -157.833862      -52.087299
 C         -58.214314     -156.548203      -52.173149
 C         -58.152245     -159.050217      -51.734818
 C         -57.235638     -156.300964      -51.160328
 C         -57.106373     -158.656494      -50.566223
 C         -56.268116     -157.470108      -50.917957
 H         -59.040848     -155.861954      -52.178467
 H         -57.706436     -156.600403      -53.121616
 H         -58.974686     -159.723267      -51.327904
 H         -57.675163     -159.592957      -52.571404
 H         -57.760120     -156.146301      -50.148705
 H         -56.714344     -155.391144      -51.458027
 H         -56.470673     -159.614426      -50.441441
 H         -57.750858     -158.493530      -49.569164
 H         -55.730789     -157.094284      -49.954727
 H         -55.672802     -157.698990      -51.780205
