20
 generated by VMD
 C         -60.827896     -154.428299      -51.246758
 N         -61.175900     -154.194519      -52.284805
 H         -57.312164     -153.966888      -52.872303
 H         -60.637394     -154.636307      -50.237362
 C         -56.655300     -153.635071      -52.076633
 C         -57.046780     -153.853912      -50.595421
 C         -55.543697     -152.732986      -52.437046
 C         -55.841846     -154.285629      -49.787384
 C         -54.443344     -153.034241      -51.506233
 C         -54.878582     -153.224564      -49.983585
 H         -57.895653     -154.573395      -50.663143
 H         -57.605839     -152.931107      -50.372379
 H         -55.209248     -152.854965      -53.417530
 H         -55.804165     -151.681870      -52.318218
 H         -55.539410     -155.236435      -50.132156
 H         -56.032612     -154.450348      -48.760262
 H         -53.559505     -152.316254      -51.534882
 H         -53.993370     -153.989044      -51.822815
 H         -53.980545     -153.525696      -49.401211
 H         -55.191593     -152.297089      -49.525173
