20
 generated by VMD
 C          -8.811000      -23.610558        2.528741
 N          -8.125055      -24.363586        2.959224
 H          -8.508340      -23.451233       -1.296300
 H          -9.232089      -22.635117       -2.694472
 C          -8.296320      -22.950802       -2.271369
 C          -7.712496      -23.967503       -3.283641
 C          -7.451891      -21.768375       -1.976708
 C          -7.188323      -23.275379       -4.534193
 C          -6.951694      -21.173521       -3.292740
 C          -6.295447      -22.153843       -4.155569
 H          -8.501341      -24.743019       -3.642401
 H          -6.904254      -24.425676       -2.696412
 H          -8.026858      -21.052818       -1.350331
 H          -6.603412      -21.997015       -1.332461
 H          -8.004587      -22.803968       -5.015551
 H          -6.637231      -23.886690       -5.244274
 H          -6.316211      -20.332235       -3.067255
 H          -7.769968      -20.767599       -3.880055
 H          -5.822607      -21.643764       -5.008907
 H          -5.401991      -22.659805       -3.701251
