20
 generated by VMD
 C         -57.672382     -165.438492      -56.505550
 N         -57.220470     -164.565475      -57.198635
 H         -60.266155     -164.657822      -54.013046
 H         -58.087124     -166.221848      -55.901981
 C         -61.222767     -164.812714      -54.501659
 C         -61.953522     -166.121857      -54.197582
 C         -61.718639     -163.877441      -55.611080
 C         -63.444504     -166.083908      -54.452927
 C         -63.225304     -164.000092      -55.942783
 C         -63.788513     -165.351227      -55.727226
 H         -61.752960     -166.443253      -53.210106
 H         -61.559605     -166.819534      -54.966129
 H         -61.341846     -162.751831      -55.386600
 H         -61.150440     -164.219757      -56.493698
 H         -64.118553     -165.541000      -53.789284
 H         -63.930798     -167.094299      -54.511871
 H         -63.211464     -163.819580      -57.026035
 H         -63.698082     -163.345398      -55.312698
 H         -64.881096     -165.460388      -55.928532
 H         -63.402256     -166.021561      -56.562546
