20
 generated by VMD
 C         -70.224915     -196.667206      -65.294655
 N         -69.455299     -197.198349      -65.997879
 H         -73.894470     -195.715744      -65.061546
 H         -70.855911     -196.175659      -64.562027
 C         -74.032440     -195.190628      -66.042648
 C         -73.016151     -193.995010      -65.977295
 C         -74.467468     -195.810394      -67.325119
 C         -72.386581     -193.751602      -67.331612
 C         -74.453979     -194.897797      -68.513153
 C         -73.423134     -193.716965      -68.480293
 H         -72.228500     -194.081863      -65.270210
 H         -73.503159     -193.109375      -65.532776
 H         -73.828873     -196.717072      -67.533516
 H         -75.502029     -196.257797      -67.221802
 H         -71.600128     -194.436890      -67.536278
 H         -71.879669     -192.809769      -67.210922
 H         -75.445503     -194.395187      -68.665802
 H         -74.302307     -195.587311      -69.306274
 H         -72.758835     -193.589310      -69.431786
 H         -73.916916     -192.723267      -68.400665
