20
 generated by VMD
 C         -67.819244     -185.804794      -67.285149
 N         -68.770287     -186.328140      -67.719345
 H         -68.505951     -187.926193      -64.662201
 H         -66.867409     -185.302505      -66.933731
 C         -69.299721     -187.662552      -63.898525
 C         -68.824287     -186.871567      -62.764931
 C         -70.734222     -188.136322      -63.965137
 C         -69.518463     -187.059357      -61.395107
 C         -71.305748     -188.404800      -62.590881
 C         -71.122803     -187.173218      -61.681248
 H         -68.978439     -185.844879      -63.089214
 H         -67.770889     -186.831482      -62.800537
 H         -71.457893     -187.502350      -64.494476
 H         -70.824097     -189.084412      -64.642448
 H         -69.409515     -186.281845      -60.650719
 H         -69.188713     -188.082520      -61.044159
 H         -70.913551     -189.289597      -62.223106
 H         -72.329956     -188.613831      -62.674953
 H         -71.395615     -186.102737      -62.097149
 H         -71.695824     -187.376740      -60.772507
