20
 generated by VMD
 C         -73.890869     -200.557312      -65.592072
 N         -73.009102     -201.111435      -65.112419
 H         -73.481514     -198.044022      -66.441864
 H         -74.659111     -199.809586      -65.872612
 C         -73.665703     -197.490784      -67.345512
 C         -74.011467     -196.001358      -67.246407
 C         -72.906471     -197.814072      -68.712204
 C         -73.714333     -195.198257      -68.529900
 C         -73.818474     -197.315704      -69.940697
 C         -74.082245     -195.866058      -69.917503
 H         -73.635513     -195.484848      -66.428139
 H         -75.119400     -196.132980      -67.035034
 H         -71.883652     -197.359772      -68.740944
 H         -72.840546     -198.914047      -68.839737
 H         -72.643272     -195.013657      -68.541214
 H         -74.249191     -194.221176      -68.565453
 H         -74.736504     -197.951416      -70.050385
 H         -73.287369     -197.613953      -70.825722
 H         -73.524300     -195.373672      -70.815086
 H         -75.074905     -195.830048      -70.131523
