20
 generated by VMD
 C         -69.921455     -184.416595      -66.171883
 N         -69.009163     -184.206955      -66.853043
 H         -69.584961     -183.477310      -63.420078
 H         -70.782356     -184.621887      -65.589706
 C         -68.975632     -183.687042      -62.508949
 C         -69.219131     -184.687714      -61.463432
 C         -68.097351     -182.460022      -62.178143
 C         -68.119606     -184.945297      -60.432579
 C         -66.835136     -182.854904      -61.495537
 C         -67.343727     -183.591568      -60.197201
 H         -69.421013     -185.570068      -62.072571
 H         -70.092422     -184.388184      -60.863884
 H         -68.015366     -181.932007      -63.142094
 H         -68.601685     -181.831970      -61.437847
 H         -67.285385     -185.481094      -60.959969
 H         -68.471779     -185.543320      -59.579662
 H         -66.233795     -181.959930      -61.297810
 H         -66.232674     -183.657196      -62.015354
 H         -66.442513     -183.991043      -59.647751
 H         -67.809029     -182.989304      -59.506840
