20
 generated by VMD
 C         -41.749454     -102.251999      -34.054409
 N         -40.839012     -101.841576      -34.700558
 H         -39.379120     -103.905991      -32.559975
 H         -42.376598     -102.763206      -33.392033
 C         -38.426956     -104.006638      -32.164459
 C         -37.343716     -103.606926      -33.000896
 C         -38.048496     -104.873672      -31.018635
 C         -35.976635     -103.340141      -32.361675
 C         -36.915638     -104.334724      -30.207375
 C         -35.619049     -104.267181      -31.097586
 H         -37.679741     -102.771957      -33.605103
 H         -37.443279     -104.459251      -33.755638
 H         -38.907265     -104.915092      -30.320658
 H         -37.925877     -105.907837      -31.457655
 H         -36.045269     -102.306107      -31.989264
 H         -35.085407     -103.390541      -32.978333
 H         -36.624413     -105.169708      -29.417974
 H         -37.110596     -103.412422      -29.702812
 H         -34.762337     -103.778267      -30.534685
 H         -35.248615     -105.208488      -31.412161
