20
 generated by VMD
 C         -22.881786      -53.045277      -12.573335
 N         -22.778109      -52.555569      -13.591117
 H         -20.481867      -54.438637      -14.422391
 H         -22.949322      -53.468159      -11.429152
 C         -19.451265      -54.316246      -13.975517
 C         -19.009542      -52.828220      -14.053219
 C         -18.491211      -55.338516      -13.552238
 C         -17.659697      -52.564613      -13.380824
 C         -17.133345      -55.004978      -12.965539
 C         -16.606075      -53.712749      -13.615293
 H         -19.829163      -52.210381      -13.595590
 H         -18.998888      -52.384491      -15.088434
 H         -19.002312      -55.957733      -12.803493
 H         -18.255732      -56.027409      -14.435580
 H         -17.855017      -52.429626      -12.290712
 H         -17.213810      -51.627884      -13.742903
 H         -16.513336      -55.851009      -13.183712
 H         -17.196516      -54.947968      -11.824514
 H         -15.653280      -53.416073      -13.205702
 H         -16.386681      -53.929729      -14.631061
