20
 generated by VMD
 C         -10.766876      -37.295933       -8.290103
 N         -10.792846      -36.335129       -7.758340
 H         -13.270126      -37.332253       -7.719730
 H         -14.360471      -37.950115       -6.447483
 C         -13.936445      -38.227291       -7.404720
 C         -13.099487      -39.559525       -7.346930
 C         -15.132989      -38.326363       -8.442888
 C         -13.926176      -40.833645       -7.313100
 C         -15.965669      -39.602280       -8.197437
 C         -15.038415      -40.872681       -8.364680
 H         -12.445333      -39.438110       -6.480011
 H         -12.511272      -39.594940       -8.265919
 H         -15.827958      -37.471809       -8.336797
 H         -14.743999      -38.389431       -9.415146
 H         -14.450563      -40.800156       -6.325141
 H         -13.332382      -41.703079       -7.486631
 H         -16.942736      -39.701614       -8.788570
 H         -16.262669      -39.610149       -7.184165
 H         -15.637693      -41.780949       -8.201153
 H         -14.608503      -40.980778       -9.332062
