20
 generated by VMD
 C         -37.987526     -109.810455      -36.364388
 N         -37.441833     -108.878304      -35.963509
 H         -40.301708     -112.803444      -36.647629
 H         -38.636402     -110.673767      -36.649288
 C         -41.326546     -112.669685      -36.276302
 C         -42.358055     -113.757187      -36.529026
 C         -41.528866     -111.508827      -35.160202
 C         -43.268570     -114.116196      -35.309914
 C         -42.356682     -112.066147      -34.040920
 C         -43.547024     -112.965759      -34.353115
 H         -41.905365     -114.718971      -36.732670
 H         -43.066410     -113.387581      -37.329998
 H         -40.492268     -111.150864      -35.051350
 H         -42.114956     -110.795807      -35.756863
 H         -42.738689     -114.990311      -34.789066
 H         -44.218319     -114.721115      -35.571156
 H         -42.797485     -111.092453      -33.611214
 H         -41.858047     -112.600914      -33.137352
 H         -43.876015     -113.334381      -33.456722
 H         -44.417210     -112.397888      -34.780930
