20
 generated by VMD
 C          -7.064582      -23.255474        2.864565
 N          -6.161986      -22.613232        2.627488
 H          -6.643032      -21.483492       -0.255491
 H          -8.102505      -21.807627       -0.853340
 C          -7.176657      -21.397322       -1.160555
 C          -6.419805      -22.227585       -2.124800
 C          -7.331060      -19.959913       -1.598207
 C          -7.088617      -22.167095       -3.515394
 C          -7.975012      -19.843723       -2.972921
 C          -7.214722      -20.708376       -3.968992
 H          -6.399542      -23.290886       -1.744897
 H          -5.345706      -22.001766       -2.211357
 H          -8.041329      -19.411278       -0.885787
 H          -6.309378      -19.540039       -1.590325
 H          -8.097836      -22.544388       -3.436978
 H          -6.435834      -22.730274       -4.183640
 H          -7.899913      -18.792677       -3.264101
 H          -8.995242      -20.184156       -2.805150
 H          -7.606289      -20.697771       -4.968399
 H          -6.234706      -20.289806       -3.971421
