20
 generated by VMD
 C         -60.851200     -155.147461      -52.813347
 N         -60.821941     -154.134018      -52.161121
 H         -57.967125     -154.164795      -52.744606
 H         -61.011700     -156.082672      -53.388695
 C         -57.145348     -154.215149      -52.031109
 C         -57.525867     -154.067307      -50.589870
 C         -55.783672     -153.639648      -52.427898
 C         -56.256798     -154.500076      -49.778084
 C         -54.600178     -154.064545      -51.583485
 C         -54.963268     -153.781540      -50.094353
 H         -58.430161     -154.721436      -50.431011
 H         -57.809715     -153.066650      -50.163044
 H         -55.695301     -153.799271      -53.527458
 H         -55.897270     -152.572449      -52.421257
 H         -55.819469     -155.570679      -49.749180
 H         -56.447121     -154.228989      -48.715176
 H         -53.623810     -153.510056      -51.852646
 H         -54.477657     -155.145889      -51.690010
 H         -54.171638     -153.911865      -49.428448
 H         -55.142071     -152.627502      -49.886776
