20
 generated by VMD
 C         -49.438972     -127.503960      -39.446674
 N         -50.477180     -127.415916      -39.995041
 H         -46.909782     -127.362366      -42.540916
 H         -48.589252     -127.650635      -38.761845
 C         -46.332630     -126.568596      -42.081871
 C         -45.619957     -127.052521      -40.862564
 C         -46.545490     -125.113480      -42.025654
 C         -44.395657     -126.266930      -40.353535
 C         -45.360130     -124.191956      -41.559158
 C         -44.784950     -124.783890      -40.262875
 H         -45.190285     -128.035965      -40.912968
 H         -46.342773     -127.195671      -40.005215
 H         -46.863686     -124.865112      -43.052628
 H         -47.317192     -125.039986      -41.233784
 H         -43.546093     -126.412773      -41.010525
 H         -44.276237     -126.743614      -39.388565
 H         -45.699924     -123.217880      -41.449860
 H         -44.676636     -124.095413      -42.370762
 H         -44.111912     -124.046333      -39.842545
 H         -45.743282     -124.748055      -39.644730
