20
 generated by VMD
 C          -1.731863      -12.994042        0.574301
 N          -1.183635      -13.884023        0.946982
 H          -3.689829      -14.859855        1.795098
 H          -4.466334      -14.653718        0.251322
 C          -4.519086      -15.176121        1.182159
 C          -5.826715      -14.784920        1.920273
 C          -4.447065      -16.639858        0.963113
 C          -7.077819      -15.247918        1.246323
 C          -5.691998      -17.170952        0.181337
 C          -6.994468      -16.743105        0.965582
 H          -5.804637      -13.725219        2.122021
 H          -5.704797      -15.215723        2.943625
 H          -3.446988      -16.952566        0.474425
 H          -4.485534      -17.161737        2.004531
 H          -7.277393      -14.707212        0.320691
 H          -7.981836      -15.100051        1.824004
 H          -5.622569      -18.275358        0.047317
 H          -5.653663      -16.784166       -0.823383
 H          -7.863477      -17.015215        0.342776
 H          -7.160007      -17.262537        1.914464
