20
 generated by VMD
 C         -67.720390     -179.523407      -58.717819
 N         -68.115791     -179.712463      -59.778591
 H         -67.344398     -176.654968      -59.676254
 H         -67.410957     -179.282440      -57.680500
 C         -66.407509     -176.672638      -60.101330
 C         -66.068764     -176.076736      -61.422745
 C         -65.230782     -177.178589      -59.255310
 C         -65.058044     -174.965851      -61.210896
 C         -64.292839     -176.056229      -59.133442
 C         -63.873318     -175.594116      -60.489677
 H         -66.943802     -175.724243      -61.897793
 H         -65.758362     -176.898193      -62.155510
 H         -65.557068     -177.586121      -58.327759
 H         -64.931625     -178.053040      -59.871208
 H         -65.549034     -174.068039      -60.588974
 H         -64.557137     -174.409973      -62.031410
 H         -63.431664     -176.458542      -58.590488
 H         -64.707962     -175.179718      -58.653294
 H         -63.211304     -174.755112      -60.356926
 H         -63.146149     -176.267410      -60.985287
