20
 generated by VMD
 C          -2.820647       -9.346115        0.058219
 N          -1.773948       -9.068184        0.167910
 H          -2.031499      -11.759582        2.714975
 H          -2.687433      -12.054379        4.226404
 C          -2.877157      -12.316489        3.138841
 C          -2.633743      -13.759478        2.705698
 C          -4.255700      -11.854592        2.660916
 C          -3.753506      -14.745451        2.865490
 C          -5.339081      -12.765165        3.006205
 C          -5.090989      -14.156950        2.435736
 H          -1.720308      -14.063480        3.294928
 H          -2.264435      -13.655787        1.693248
 H          -4.463021      -10.819769        3.041076
 H          -4.237481      -11.718165        1.589021
 H          -3.783664      -14.926076        3.934039
 H          -3.496489      -15.727918        2.402749
 H          -6.311087      -12.361417        2.610779
 H          -5.480030      -12.827038        4.092784
 H          -5.852132      -14.858130        2.698251
 H          -5.078453      -14.084595        1.367349
