20
 generated by VMD
 C         -69.370926     -180.931137      -62.332291
 N         -70.157837     -180.106628      -62.245842
 H         -67.044075     -181.368347      -60.221210
 H         -68.565857     -181.666214      -62.396641
 C         -66.482529     -180.403091      -60.474922
 C         -65.010750     -180.433289      -60.545246
 C         -67.148056     -179.211319      -59.786366
 C         -64.456940     -179.127472      -61.208721
 C         -66.691292     -177.964584      -60.580151
 C         -65.114456     -177.781006      -60.723682
 H         -64.782501     -181.295303      -61.165207
 H         -64.510437     -180.702179      -59.674030
 H         -68.301369     -179.164413      -59.764412
 H         -66.808784     -179.259323      -58.763142
 H         -64.713722     -179.142197      -62.292202
 H         -63.383282     -179.099945      -60.979733
 H         -67.055168     -177.179901      -59.902603
 H         -67.339447     -177.804916      -61.489822
 H         -64.873978     -177.014023      -61.415428
 H         -64.592171     -177.654449      -59.781464
