20
 generated by VMD
 C         -38.293941     -109.682930      -36.504597
 N         -37.640717     -109.003273      -35.799805
 H         -41.687313     -111.121063      -37.365108
 H         -39.089016     -110.285652      -37.048340
 C         -41.716022     -111.526718      -36.333912
 C         -42.072277     -112.977341      -36.248039
 C         -41.928627     -110.694839      -35.101624
 C         -41.941940     -113.606659      -34.865601
 C         -41.936325     -111.471542      -33.721275
 C         -42.822067     -112.819710      -33.870571
 H         -41.323559     -113.483009      -36.817238
 H         -43.087196     -113.090736      -36.650108
 H         -41.207615     -109.883644      -35.308933
 H         -42.868225     -110.142395      -35.262375
 H         -40.938324     -113.592102      -34.544621
 H         -42.160049     -114.749603      -34.901207
 H         -42.479927     -110.947151      -32.979332
 H         -40.988388     -111.638596      -33.328835
 H         -42.931679     -113.311821      -32.986553
 H         -43.788155     -112.387329      -34.242779
