20
 generated by VMD
 C         -75.277267     -201.417130      -66.310181
 N         -75.721840     -202.267670      -65.673683
 H         -76.186882     -199.430740      -69.347939
 H         -74.642456     -200.588394      -66.704865
 C         -75.174438     -199.161362      -69.226776
 C         -74.921623     -198.122009      -68.143616
 C         -74.064713     -199.732971      -70.082764
 C         -73.366623     -198.017014      -68.052277
 C         -73.049614     -198.679138      -70.605309
 C         -72.861649     -197.598358      -69.568542
 H         -75.288643     -198.422897      -67.199104
 H         -75.531380     -197.181335      -68.299141
 H         -73.542862     -200.470535      -69.447578
 H         -74.646255     -200.138596      -71.007828
 H         -72.982292     -199.044495      -67.898056
 H         -73.078453     -197.287689      -67.245850
 H         -73.293831     -198.170212      -71.522079
 H         -72.145500     -199.169937      -70.883530
 H         -71.876442     -197.225708      -69.629677
 H         -73.586082     -196.698822      -69.830261
