20
 generated by VMD
 C         -24.881296      -70.665260      -16.653366
 N         -25.127035      -70.865746      -15.542144
 H         -23.698681      -68.138252      -18.817970
 H         -24.400230      -70.495903      -17.672560
 C         -24.392878      -68.784004      -19.395796
 C         -23.831467      -69.361855      -20.743683
 C         -25.790613      -68.180763      -19.756241
 C         -24.840916      -70.358025      -21.334393
 C         -26.911844      -69.201454      -20.391251
 C         -26.193550      -69.706436      -21.698801
 H         -22.827663      -69.827583      -20.684267
 H         -23.542023      -68.546799      -21.343878
 H         -26.159719      -67.829994      -18.766333
 H         -25.575485      -67.282364      -20.442430
 H         -24.909418      -71.175697      -20.655136
 H         -24.305927      -70.689949      -22.250816
 H         -27.833532      -68.666237      -20.630911
 H         -27.221033      -70.071548      -19.849251
 H         -26.892784      -70.366623      -22.270159
 H         -26.053301      -68.796974      -22.335262
