20
 generated by VMD
 C         -80.201775     -206.901123      -74.051559
 N         -80.537384     -206.481659      -75.073311
 H         -76.628281     -207.537262      -73.129410
 H         -80.090248     -207.206940      -73.040443
 C         -76.710510     -207.454147      -72.021683
 C         -75.487152     -206.902069      -71.383537
 C         -77.206566     -208.572144      -71.142265
 C         -75.524277     -206.494385      -69.910645
 C         -77.238091     -208.229614      -69.551285
 C         -75.843979     -207.745850      -69.139526
 H         -75.371780     -206.058762      -72.058250
 H         -74.527428     -207.365723      -71.517960
 H         -78.253685     -208.742752      -71.443817
 H         -76.698059     -209.570145      -71.417053
 H         -76.222282     -205.677460      -69.831841
 H         -74.543602     -206.102798      -69.574455
 H         -77.418457     -209.219803      -69.005043
 H         -78.152397     -207.621368      -69.374596
 H         -75.636047     -207.656357      -68.091339
 H         -75.087425     -208.428467      -69.426414
