20
 generated by VMD
 C         -56.662334     -150.112076      -47.647289
 N         -57.695026     -150.406601      -48.104733
 H         -53.463219     -148.193604      -47.337597
 H         -55.730453     -149.816574      -47.239628
 C         -53.635250     -147.973541      -48.414787
 C         -53.156563     -148.713913      -49.619972
 C         -54.538689     -146.827118      -48.534332
 C         -54.092316     -148.903839      -50.810062
 C         -55.636543     -146.963776      -49.637386
 C         -54.933029     -147.560104      -50.990044
 H         -52.831238     -149.678650      -49.346420
 H         -52.198902     -148.102081      -49.832119
 H         -55.002846     -146.601334      -47.605808
 H         -53.962452     -145.958160      -48.782730
 H         -54.649250     -149.812912      -50.754833
 H         -53.585888     -149.016418      -51.782333
 H         -55.971279     -145.922913      -49.788597
 H         -56.395813     -147.549683      -49.238441
 H         -55.755497     -147.735992      -51.688976
 H         -54.387302     -146.803192      -51.552387
