20
 generated by VMD
 C         -37.002934      -98.408157      -25.667797
 N         -36.665882      -98.422501      -26.781271
 H         -35.886311      -95.966164      -28.344454
 H         -37.155773      -98.397125      -24.544760
 C         -35.630898      -95.608200      -29.423866
 C         -35.750580      -96.458336      -30.668293
 C         -34.397678      -94.732780      -29.122011
 C         -35.099136      -95.772644      -31.934662
 C         -33.868904      -94.155884      -30.440397
 C         -33.734718      -95.150246      -31.549726
 H         -36.762028      -96.620346      -30.883509
 H         -35.239475      -97.415741      -30.487955
 H         -34.774479      -93.991562      -28.383362
 H         -33.590584      -95.288277      -28.533909
 H         -35.885189      -95.122406      -32.312428
 H         -34.969177      -96.550598      -32.754829
 H         -32.895657      -93.654274      -30.233854
 H         -34.524761      -93.404015      -30.800962
 H         -33.262741      -94.592087      -32.570168
 H         -32.981911      -95.848534      -31.283484
