20
 generated by VMD
 C         -18.117870      -49.496277       -8.591646
 N         -19.169418      -49.879116       -8.653948
 H         -16.425165      -47.377411       -9.986134
 H         -17.231623      -48.768703      -10.542832
 C         -16.727774      -47.886822      -10.907682
 C         -15.501991      -48.334503      -11.607918
 C         -17.710573      -47.027588      -11.691861
 C         -15.751979      -48.764660      -13.074547
 C         -18.072233      -47.834347      -12.927877
 C         -16.816111      -47.931274      -13.804140
 H         -14.969285      -49.069134      -10.942336
 H         -14.734294      -47.547222      -11.606341
 H         -18.587267      -46.746704      -11.074398
 H         -17.171314      -46.074207      -11.891171
 H         -15.967794      -49.837875      -13.101946
 H         -14.869400      -48.658348      -13.685547
 H         -19.006468      -47.389915      -13.448588
 H         -18.387568      -48.829460      -12.604409
 H         -17.044491      -48.412846      -14.718389
 H         -16.451872      -46.959076      -14.016335
