20
 generated by VMD
 C         -13.345229      -30.939053       -8.281967
 N         -12.985184      -30.042400       -8.876331
 H         -11.422391      -32.068928       -6.365308
 H         -11.774860      -32.186981       -4.594924
 C         -11.314104      -32.718872       -5.490018
 C          -9.873288      -33.116882       -5.192005
 C         -12.173098      -33.983917       -5.712453
 C          -9.665180      -33.982204       -3.980057
 C         -11.992764      -34.885002       -4.451415
 C         -10.568900      -35.184063       -4.032132
 H          -9.343366      -32.212013       -5.073641
 H          -9.453679      -33.648808       -6.114967
 H         -13.229147      -33.782459       -5.790233
 H         -11.855726      -34.529713       -6.582658
 H          -9.888236      -33.316280       -3.157439
 H          -8.656847      -34.271290       -3.848161
 H         -12.499202      -35.849876       -4.541516
 H         -12.524839      -34.360268       -3.708680
 H         -10.591606      -35.693596       -3.041921
 H         -10.147282      -35.829655       -4.796171
