20
 generated by VMD
 C          -2.101958       -8.574524        0.333194
 N          -1.919667       -9.065930       -0.617048
 H          -2.798969      -10.017152        2.581872
 H          -1.922099      -11.190162        3.696215
 C          -2.856162      -11.025230        3.112742
 C          -2.978198      -12.063704        1.983200
 C          -4.076492      -11.064686        4.127695
 C          -3.312685      -13.472667        2.482728
 C          -4.247486      -12.521019        4.623130
 C          -4.466568      -13.528925        3.497202
 H          -1.991557      -12.175596        1.535064
 H          -3.706897      -11.733587        1.200629
 H          -3.843610      -10.358963        4.909162
 H          -4.912905      -10.595196        3.629597
 H          -2.455389      -13.693250        3.147695
 H          -3.402844      -14.257468        1.739178
 H          -5.024801      -12.541435        5.359248
 H          -3.361255      -12.849416        5.154980
 H          -4.577243      -14.528196        3.981745
 H          -5.406024      -13.381769        2.941200
