20
 generated by VMD
 C         -69.881020     -184.594604      -66.361748
 N         -69.001869     -184.358124      -67.067154
 H         -69.694443     -183.556671      -63.444786
 H         -70.646477     -184.906876      -65.699463
 C         -69.096939     -183.512268      -62.500664
 C         -69.336174     -184.596573      -61.458191
 C         -68.174553     -182.492462      -62.031143
 C         -68.140297     -185.024750      -60.538166
 C         -66.868164     -182.925278      -61.401985
 C         -67.223083     -183.856918      -60.141644
 H         -69.839706     -185.433167      -61.882416
 H         -70.157196     -184.158829      -60.875027
 H         -67.956818     -181.788635      -62.953434
 H         -68.706322     -181.832489      -61.331650
 H         -67.674561     -185.776398      -61.094944
 H         -68.487473     -185.603836      -59.695683
 H         -66.142662     -182.170914      -61.080788
 H         -66.276276     -183.523819      -62.191666
 H         -66.152863     -184.304016      -59.866192
 H         -67.578667     -183.196045      -59.328754
