20
 generated by VMD
 C         -30.555698      -93.307335      -25.129284
 N         -29.606190      -93.877541      -25.502979
 H         -33.667286      -91.581329      -26.456730
 H         -31.461025      -92.869438      -24.715525
 C         -34.113609      -91.617989      -27.429911
 C         -35.424431      -92.280914      -27.777746
 C         -33.324657      -90.987740      -28.562778
 C         -36.258034      -91.467583      -28.767336
 C         -34.197960      -90.311440      -29.625271
 C         -35.456959      -91.117119      -30.008850
 H         -35.964478      -92.427872      -26.873697
 H         -35.374313      -93.264748      -28.229454
 H         -32.585587      -90.269676      -28.199280
 H         -32.608292      -91.747299      -28.978397
 H         -36.604088      -90.549026      -28.251852
 H         -37.218319      -92.025124      -28.972933
 H         -33.601082      -90.230705      -30.584642
 H         -34.271839      -89.300491      -29.290373
 H         -36.121765      -90.326118      -30.482466
 H         -35.477127      -91.976357      -30.719080
