20
 generated by VMD
 C         -13.940045      -43.388611       -6.602775
 N         -13.161554      -43.699623       -5.867640
 H         -15.030109      -45.143364       -8.975281
 H         -14.348369      -43.953724       -9.947179
 C         -15.273549      -44.523506       -9.851720
 C         -16.411465      -43.555008       -9.549379
 C         -15.417311      -45.404675      -11.070702
 C         -16.782061      -42.798054      -10.824179
 C         -16.007704      -44.644814      -12.278182
 C         -17.235464      -43.804482      -11.899879
 H         -16.197937      -42.817829       -8.755985
 H         -17.249636      -44.189617       -9.132113
 H         -14.511704      -45.959808      -11.303412
 H         -16.078236      -46.286419      -10.883988
 H         -15.898092      -42.258507      -11.170666
 H         -17.576544      -42.048855      -10.651670
 H         -16.293444      -45.477932      -12.999514
 H         -15.318389      -43.975754      -12.838881
 H         -17.648224      -43.321201      -12.739867
 H         -17.987110      -44.405148      -11.438840
