20
 generated by VMD
 C         -37.088474      -98.096016      -25.996508
 N         -36.058559      -98.439079      -26.373426
 H         -36.346588      -95.187569      -28.558361
 H         -38.094215      -97.870430      -25.538260
 C         -35.583195      -95.471313      -29.271572
 C         -35.650761      -96.345337      -30.482990
 C         -34.274830      -94.587646      -29.126301
 C         -35.192207      -95.573448      -31.805700
 C         -33.861027      -94.021744      -30.418581
 C         -33.870316      -94.979309      -31.592775
 H         -36.762402      -96.621712      -30.619850
 H         -35.135178      -97.328812      -30.398611
 H         -34.536106      -93.816566      -28.404646
 H         -33.476200      -95.239540      -28.754183
 H         -35.956165      -94.861588      -32.154217
 H         -35.151318      -96.390671      -32.507629
 H         -32.894032      -93.534950      -30.386816
 H         -34.553013      -93.131447      -30.741289
 H         -33.576591      -94.511116      -32.465244
 H         -33.184429      -95.968285      -31.343300
