20
 generated by VMD
 C         -38.359936     -112.865273      -36.401535
 N         -37.237549     -112.718781      -36.398598
 H         -41.329758     -114.835060      -34.798187
 H         -39.377281     -113.297607      -36.289089
 C         -42.291428     -114.757187      -35.380699
 C         -42.100204     -114.697968      -36.918800
 C         -43.465294     -114.095711      -34.756893
 C         -43.377594     -114.921440      -37.633221
 C         -44.756718     -114.379875      -35.539837
 C         -44.473076     -114.084641      -37.110741
 H         -41.445892     -115.525177      -36.956326
 H         -41.623440     -113.747597      -36.970840
 H         -43.755848     -114.642883      -33.850006
 H         -43.292866     -113.017982      -34.658615
 H         -43.707130     -116.014946      -37.583534
 H         -43.233963     -114.715469      -38.681770
 H         -45.600067     -113.682014      -35.110416
 H         -44.964096     -115.519775      -35.341171
 H         -45.542919     -114.262505      -37.536118
 H         -44.257820     -113.036324      -37.339752
