20
 generated by VMD
 C         -40.424404     -104.504173      -36.207703
 N         -39.505169     -104.867065      -36.793556
 H         -40.722572     -107.352745      -34.613136
 H         -41.088394     -104.082611      -35.454514
 C         -39.900078     -107.800903      -34.053158
 C         -38.849213     -106.868317      -33.589249
 C         -39.930370     -109.192726      -33.566696
 C         -38.544376     -107.042320      -32.085526
 C         -39.920795     -109.157845      -32.009987
 C         -38.717850     -108.457047      -31.522041
 H         -39.123478     -105.825073      -33.733540
 H         -38.057446     -107.221115      -34.189892
 H         -40.751053     -109.710968      -34.027473
 H         -39.037678     -109.552742      -34.030403
 H         -39.257103     -106.410065      -31.488115
 H         -37.582886     -106.559250      -31.869032
 H         -39.912548     -110.044640      -31.510221
 H         -40.816765     -108.625877      -31.616922
 H         -38.865017     -108.129532      -30.439032
 H         -37.836773     -109.008850      -31.536623
