20
 generated by VMD
 C         -47.803822     -136.802872      -46.054108
 N         -47.100391     -136.547226      -46.987999
 H         -50.368732     -136.172211      -45.261765
 H         -48.610443     -137.067200      -45.373405
 C         -51.044731     -136.905136      -44.969418
 C         -51.344269     -137.881516      -46.006016
 C         -52.003223     -136.754257      -43.851780
 C         -52.174603     -139.087952      -45.558933
 C         -52.597012     -138.068787      -43.419289
 C         -53.264706     -138.924408      -44.593513
 H         -50.396309     -138.210297      -46.463688
 H         -51.991123     -137.293182      -46.709728
 H         -51.463978     -136.301712      -42.952129
 H         -52.813755     -136.112625      -44.173264
 H         -51.485222     -139.810287      -45.217308
 H         -52.627380     -139.698334      -46.379662
 H         -53.506931     -137.759933      -42.786156
 H         -52.040188     -138.567551      -42.654613
 H         -53.621128     -139.811844      -44.246574
 H         -54.069248     -138.347244      -45.091278
