20
 generated by VMD
 C         -78.766327     -204.270630      -70.485916
 N         -79.863449     -204.484116      -70.418854
 H         -76.589783     -203.480728      -68.539604
 H         -77.715294     -204.079056      -70.726273
 C         -75.735207     -203.127441      -69.107941
 C         -75.716652     -201.699051      -69.631691
 C         -74.461708     -203.795258      -68.872978
 C         -74.611580     -201.750610      -70.813568
 C         -73.246582     -202.947845      -69.115219
 C         -73.240974     -201.950760      -70.356850
 H         -75.390015     -201.104507      -68.722610
 H         -76.656639     -201.365036      -70.067131
 H         -74.513809     -204.180145      -67.817101
 H         -74.439346     -204.727325      -69.481293
 H         -74.685883     -200.822876      -71.361038
 H         -74.849609     -202.525528      -71.524025
 H         -72.352066     -203.612961      -69.191162
 H         -72.974266     -202.252686      -68.334846
 H         -72.667999     -200.917557      -70.097946
 H         -72.626053     -202.239868      -71.254768
