20
 generated by VMD
 C         -79.485512     -206.273956      -74.993469
 N         -79.609047     -206.450348      -73.826332
 H         -78.530495     -206.614441      -71.254227
 H         -79.517380     -206.073044      -76.038750
 C         -77.596748     -206.693588      -70.736084
 C         -76.599579     -205.735336      -71.250679
 C         -77.297333     -207.914551      -69.816017
 C         -75.342537     -205.698654      -70.352043
 C         -75.958107     -207.744293      -69.117859
 C         -74.907578     -207.206314      -70.074593
 H         -76.828979     -204.727356      -71.450096
 H         -76.449432     -206.247940      -72.163124
 H         -78.163841     -208.118240      -69.173874
 H         -77.294525     -208.735077      -70.537598
 H         -75.520164     -205.069077      -69.446587
 H         -74.582695     -205.344849      -71.097923
 H         -75.561157     -208.812485      -68.945358
 H         -75.956062     -207.206192      -68.197952
 H         -73.898949     -207.148361      -69.810768
 H         -75.088737     -207.789261      -71.040192
