20
 generated by VMD
 C         -20.054193      -50.074089       -9.726256
 N         -19.809624      -51.255733       -9.601248
 H         -16.887125      -48.449883       -9.985645
 H         -20.144768      -49.160145       -9.586367
 C         -16.882282      -48.585236      -11.035496
 C         -15.889186      -49.617661      -11.553162
 C         -17.381037      -47.604019      -12.043539
 C         -16.008797      -49.971718      -13.049232
 C         -17.886703      -48.329075      -13.240684
 C         -16.768091      -49.038925      -13.990081
 H         -15.953001      -50.491455      -10.867626
 H         -14.882545      -49.286266      -11.327540
 H         -18.104567      -46.950569      -11.601439
 H         -16.564939      -46.952217      -12.328419
 H         -16.373423      -51.000957      -13.248670
 H         -14.986390      -50.042229      -13.455921
 H         -18.464453      -47.587067      -13.930799
 H         -18.623611      -49.049408      -12.963586
 H         -17.202106      -49.699062      -14.734029
 H         -16.149101      -48.250000      -14.432117
