20
 generated by VMD
 C         -25.178915      -71.002380      -16.978399
 N         -25.284399      -70.953850      -15.825860
 H         -24.279911      -69.157532      -18.508810
 H         -25.128771      -71.083710      -18.011414
 C         -24.551281      -68.892784      -19.493204
 C         -23.892170      -69.729584      -20.553020
 C         -25.872692      -68.282547      -19.784357
 C         -24.872957      -70.679344      -21.342369
 C         -26.772039      -69.232666      -20.476191
 C         -26.082651      -69.821297      -21.735228
 H         -23.038893      -70.226021      -20.057835
 H         -23.340162      -68.945633      -21.213680
 H         -26.274588      -68.088440      -18.760292
 H         -25.845119      -67.310646      -20.463854
 H         -25.133364      -71.628410      -20.738205
 H         -24.393093      -71.108635      -22.212933
 H         -27.642273      -68.718208      -20.966291
 H         -27.135197      -70.035095      -19.746677
 H         -26.805294      -70.525116      -22.233889
 H         -25.846748      -68.944656      -22.377119
