20
 generated by VMD
 C         -79.804695     -205.506287      -72.310791
 N         -80.070267     -206.662643      -72.303680
 H         -77.595718     -204.632980      -71.169655
 H         -79.717911     -204.394714      -72.060768
 C         -76.563263     -204.939423      -71.098656
 C         -75.378593     -204.082489      -71.340645
 C         -76.298828     -206.402039      -70.572136
 C         -74.629837     -203.907135      -70.107117
 C         -75.639168     -206.258942      -69.231575
 C         -74.428207     -205.286545      -69.232796
 H         -75.559723     -203.063522      -71.781662
 H         -74.732178     -204.577164      -72.026367
 H         -77.227890     -206.990860      -70.643990
 H         -75.624969     -206.941803      -71.206261
 H         -75.083313     -203.156876      -69.388359
 H         -73.595444     -203.695526      -70.246391
 H         -75.110565     -207.164627      -68.909760
 H         -76.384933     -206.009125      -68.585129
 H         -74.085243     -205.023712      -68.174728
 H         -73.603096     -205.827347      -69.704285
