20
 generated by VMD
 C         -68.256630     -194.363892      -66.288742
 N         -67.719917     -194.299408      -65.232735
 H         -70.759979     -191.466827      -67.255211
 H         -68.610016     -194.331558      -67.267700
 C         -71.463936     -191.280533      -66.400719
 C         -72.496300     -190.193832      -66.510818
 C         -71.521347     -192.288330      -65.270020
 C         -73.842331     -190.700806      -66.367073
 C         -72.866142     -192.181580      -64.535095
 C         -74.043251     -191.963760      -65.508255
 H         -72.280167     -189.594681      -67.333939
 H         -72.274498     -189.566559      -65.536797
 H         -71.350708     -193.381317      -65.495239
 H         -70.629135     -192.025681      -64.563477
 H         -74.374237     -190.831406      -67.338936
 H         -74.564415     -190.026566      -65.857475
 H         -72.935120     -191.410431      -63.679295
 H         -73.006447     -193.132919      -64.019402
 H         -74.230865     -192.819122      -66.141953
 H         -75.005936     -191.896805      -64.961716
