20
 generated by VMD
 C         -36.694881      -98.308014      -26.037004
 N         -37.340374      -98.369331      -26.978537
 H         -36.451519      -96.157158      -28.867329
 H         -36.206814      -98.254631      -25.010162
 C         -35.544132      -95.957718      -29.466661
 C         -35.618271      -96.765556      -30.681353
 C         -34.414967      -95.037521      -29.064566
 C         -35.113518      -95.961517      -31.923038
 C         -33.982185      -94.285332      -30.311337
 C         -33.813637      -95.137077      -31.540869
 H         -36.653458      -96.947784      -30.833456
 H         -35.132187      -97.744316      -30.551548
 H         -34.703476      -94.310211      -28.302113
 H         -33.753834      -95.761665      -28.535156
 H         -35.936920      -95.370613      -32.246006
 H         -34.950367      -96.714798      -32.762829
 H         -33.009808      -93.876915      -30.121548
 H         -34.708122      -93.486969      -30.538338
 H         -33.369038      -94.675476      -32.519829
 H         -33.147808      -95.876198      -31.354641
