20
 generated by VMD
 C         -22.003458      -52.264656      -11.473614
 N         -21.869669      -52.818989      -10.478493
 H         -19.866737      -52.029083      -14.094326
 H         -22.231239      -51.635757      -12.585266
 C         -18.877525      -52.028637      -13.805967
 C         -17.918247      -51.729122      -14.889840
 C         -18.606915      -51.991047      -12.336246
 C         -16.460461      -52.031059      -14.546245
 C         -17.191938      -51.545448      -12.083555
 C         -16.166714      -52.158749      -13.049440
 H         -18.094454      -50.669094      -14.978188
 H         -18.233204      -52.203629      -15.896679
 H         -19.266195      -51.224712      -11.901402
 H         -18.817720      -52.909847      -11.870347
 H         -15.745491      -51.386070      -15.071714
 H         -16.380081      -53.015518      -15.009636
 H         -16.967594      -51.792099      -11.066175
 H         -17.159204      -50.364704      -12.153710
 H         -15.165802      -51.700550      -12.881639
 H         -16.062883      -53.236572      -12.743448
