20
 generated by VMD
 C         -49.608673     -133.100357      -47.172592
 N         -49.484138     -131.908417      -46.985508
 H         -47.699108     -134.503311      -44.037624
 H         -49.351421     -134.197906      -47.106339
 C         -48.655148     -134.693329      -43.617661
 C         -49.251019     -136.001144      -44.030518
 C         -49.617748     -133.641403      -43.175201
 C         -49.958767     -136.610504      -42.843388
 C         -50.430008     -134.239624      -41.873363
 C         -51.028164     -135.593445      -42.341778
 H         -48.423634     -136.656601      -44.260941
 H         -49.899597     -135.873993      -44.932865
 H         -49.199348     -132.665680      -42.856434
 H         -50.369785     -133.406372      -44.070744
 H         -49.285969     -136.757217      -41.996075
 H         -50.495884     -137.518539      -43.012630
 H         -51.144215     -133.474106      -41.717758
 H         -49.881111     -134.406616      -41.006443
 H         -51.620087     -135.969467      -41.536518
 H         -51.803772     -135.351074      -43.011353
