20
 generated by VMD
 C         -58.496353     -151.970810      -49.513969
 N         -59.624866     -152.212921      -49.237740
 H         -56.077721     -150.030014      -48.343346
 H         -57.429321     -151.854721      -49.682468
 C         -55.170048     -149.633118      -48.777466
 C         -54.277828     -150.673050      -49.451637
 C         -54.821518     -148.168350      -48.925194
 C         -54.237995     -150.397369      -50.911217
 C         -54.776260     -147.946655      -50.516392
 C         -53.867897     -148.950607      -51.180988
 H         -54.633160     -151.740891      -49.250114
 H         -53.257915     -150.449356      -49.040764
 H         -55.511707     -147.568924      -48.448513
 H         -53.900871     -147.993042      -48.380657
 H         -55.125137     -150.709061      -51.439693
 H         -53.388157     -150.918503      -51.392067
 H         -54.326050     -146.925674      -50.775940
 H         -55.767143     -147.994675      -50.798824
 H         -53.845669     -148.823151      -52.243050
 H         -52.827858     -148.747238      -50.820721
