20
 generated by VMD
 C         -50.706459     -128.409424      -41.935677
 N         -51.895844     -128.422623      -41.858242
 H         -47.875454     -128.009613      -40.677189
 H         -49.658436     -128.529388      -42.246296
 C         -46.882454     -127.503876      -40.720764
 C         -45.681358     -128.068497      -40.164326
 C         -46.908527     -126.048752      -41.253719
 C         -44.455875     -127.529510      -40.828434
 C         -45.574844     -125.659180      -41.873486
 C         -44.333920     -126.027496      -41.159069
 H         -45.747894     -129.139511      -40.186443
 H         -45.575424     -127.820610      -39.066975
 H         -47.588879     -125.832397      -42.039143
 H         -47.402706     -125.437164      -40.431267
 H         -44.194717     -128.074356      -41.753792
 H         -43.619503     -127.818192      -40.254066
 H         -45.584965     -124.514381      -42.039539
 H         -45.453236     -126.154266      -42.890205
 H         -43.462906     -126.024437      -41.851246
 H         -44.153240     -125.577652      -40.219879
