20
 generated by VMD
 C         -32.453449      -95.589417      -25.534492
 N         -33.226185      -95.420570      -24.716242
 H         -34.042305      -94.159912      -27.567972
 H         -31.723835      -95.890877      -26.350033
 C         -34.360485      -93.876762      -28.567577
 C         -35.815948      -93.602936      -28.756193
 C         -33.346745      -93.412056      -29.629250
 C         -36.080524      -92.286224      -29.497053
 C         -33.699551      -92.088600      -30.316357
 C         -35.146011      -91.942863      -30.698803
 H         -36.411381      -93.687881      -27.813917
 H         -36.331375      -94.248878      -29.432951
 H         -32.327129      -93.400650      -29.227701
 H         -33.284611      -94.205467      -30.393311
 H         -35.947754      -91.366692      -28.942028
 H         -37.064018      -92.347298      -29.872046
 H         -33.082211      -91.941971      -31.246183
 H         -33.375809      -91.375443      -29.649828
 H         -35.483368      -90.999161      -31.127802
 H         -35.218197      -92.826408      -31.462543
