20
 generated by VMD
 C         -15.225171      -46.960960       -6.268026
 N         -15.192067      -47.082222       -5.158935
 H         -16.091969      -46.231937       -9.647056
 H         -14.925205      -46.057766      -10.910468
 C         -16.015305      -45.966297      -10.744415
 C         -16.450653      -44.527859      -10.974324
 C         -16.793127      -46.991043      -11.585272
 C         -16.376785      -44.185436      -12.477737
 C         -16.808353      -46.577705      -13.105205
 C         -17.231091      -45.141693      -13.282585
 H         -15.772080      -43.857071      -10.436790
 H         -17.441759      -44.280243      -10.579650
 H         -16.479635      -48.035088      -11.361964
 H         -17.832701      -46.988312      -11.330430
 H         -15.326189      -44.132847      -12.818315
 H         -16.744879      -43.156197      -12.627662
 H         -17.606720      -47.249138      -13.637681
 H         -15.834520      -46.817036      -13.496025
 H         -17.225370      -44.970554      -14.393728
 H         -18.229582      -44.973759      -12.841414
