20
 generated by VMD
 C         -29.892704      -89.601761      -25.617872
 N         -29.207449      -90.550644      -25.824097
 H         -32.075623      -91.524269      -27.275606
 H         -30.700430      -88.785652      -25.586876
 C         -32.860069      -90.779274      -27.329397
 C         -34.293446      -91.315216      -27.230139
 C         -32.676205      -89.641838      -28.250362
 C         -35.409084      -90.211769      -27.164915
 C         -33.608101      -88.544556      -27.740639
 C         -35.195240      -88.917381      -27.957506
 H         -34.357235      -91.799454      -26.277216
 H         -34.621796      -91.909279      -28.106125
 H         -31.662025      -89.255592      -27.962667
 H         -32.651020      -90.096130      -29.247622
 H         -35.519718      -89.920822      -26.066540
 H         -36.354595      -90.719147      -27.376190
 H         -33.386909      -87.682304      -28.348827
 H         -33.371380      -88.328743      -26.664602
 H         -35.688568      -87.980957      -27.688471
 H         -35.154072      -89.061600      -29.124586
