20
 generated by VMD
 C         -68.441261     -185.147797      -66.102905
 N         -69.481117     -185.648880      -66.210556
 H         -69.748932     -182.754791      -63.316410
 H         -67.462761     -184.663864      -66.086792
 C         -69.308189     -183.599289      -62.850201
 C         -70.102257     -184.820511      -62.460751
 C         -67.775620     -183.684937      -62.545227
 C         -69.351097     -185.988617      -62.006630
 C         -67.653290     -184.236923      -61.114273
 C         -68.394600     -185.584442      -60.937897
 H         -70.598900     -185.166336      -63.391167
 H         -70.805588     -184.502884      -61.742172
 H         -67.227913     -184.417267      -63.263542
 H         -67.349243     -182.664246      -62.597446
 H         -69.002426     -186.472549      -62.922832
 H         -69.909241     -186.828491      -61.589012
 H         -68.116600     -183.623184      -60.347401
 H         -66.559944     -184.151413      -60.925262
 H         -67.638252     -186.393555      -60.760551
 H         -69.002548     -185.646576      -59.907921
