20
 generated by VMD
 C         -78.645424     -209.675095      -76.790962
 N         -77.707184     -210.065674      -77.399857
 H         -79.441048     -211.598373      -74.118546
 H         -79.492645     -209.423141      -76.271629
 C         -79.512390     -212.114914      -73.203133
 C         -78.126389     -212.301468      -72.697281
 C         -80.581001     -213.176880      -73.045647
 C         -78.245651     -212.761810      -71.215019
 C         -80.776756     -213.361740      -71.575195
 C         -79.448975     -213.751160      -70.902161
 H         -77.474091     -211.411118      -72.959877
 H         -77.667030     -213.103592      -73.293846
 H         -81.496773     -212.753723      -73.461594
 H         -80.217972     -214.185471      -73.536987
 H         -78.360085     -211.768921      -70.706810
 H         -77.333191     -213.165161      -70.773323
 H         -81.397797     -214.185501      -71.451332
 H         -81.354729     -212.495667      -71.107292
 H         -79.613892     -213.937408      -69.823433
 H         -79.108223     -214.711212      -71.229042
