20
 generated by VMD
 C         -26.004669      -71.837891      -17.265255
 N         -26.698973      -72.530930      -16.633461
 H         -24.257444      -69.149994      -18.866491
 H         -25.250298      -71.304474      -17.865116
 C         -24.837721      -69.707657      -19.651449
 C         -24.047029      -70.809395      -20.382433
 C         -25.766081      -68.746040      -20.490501
 C         -25.042570      -71.583450      -21.097324
 C         -26.803675      -69.572701      -21.284433
 C         -26.016703      -70.752708      -21.988995
 H         -23.502016      -71.395050      -19.673223
 H         -23.313660      -70.098938      -20.813143
 H         -26.177504      -67.955490      -19.803392
 H         -25.102182      -68.146950      -21.227032
 H         -25.751787      -72.104317      -20.473854
 H         -24.563780      -72.315247      -21.730856
 H         -27.573164      -68.981140      -21.890574
 H         -27.442781      -70.033104      -20.420279
 H         -26.741318      -71.454163      -22.348089
 H         -25.442404      -70.455139      -22.856211
