20
 generated by VMD
 C         -78.124214     -203.512772      -69.482552
 N         -78.947136     -204.359848      -69.483246
 H         -75.577614     -202.043945      -67.456223
 H         -77.367058     -202.683167      -69.546425
 C         -74.927994     -201.739319      -68.250786
 C         -75.006989     -200.324768      -68.670502
 C         -73.782677     -202.533051      -68.711281
 C         -74.792625     -200.123917      -70.136475
 C         -72.911240     -201.881149      -69.907677
 C         -73.791306     -200.928375      -70.831284
 H         -74.256805     -199.650085      -68.120323
 H         -75.969688     -199.960495      -68.359840
 H         -73.156944     -202.756454      -67.833000
 H         -74.158463     -203.535522      -68.995323
 H         -74.470284     -199.070374      -70.223984
 H         -75.745552     -200.249084      -70.664284
 H         -72.364838     -202.593155      -70.536621
 H         -72.238914     -201.283325      -69.292084
 H         -73.021820     -200.377548      -71.430809
 H         -74.213882     -201.717896      -71.472046
