20
 generated by VMD
 C         -69.598717     -181.173737      -61.198620
 N         -69.287292     -180.246384      -61.829647
 H         -67.250053     -179.300980      -59.646355
 H         -69.974815     -182.020966      -60.572044
 C         -66.328362     -178.847107      -59.777573
 C         -65.575356     -179.018753      -61.066002
 C         -65.748985     -177.844269      -58.843182
 C         -65.170906     -177.712814      -61.744633
 C         -65.185417     -176.518982      -59.507900
 C         -64.531822     -176.756546      -60.825901
 H         -66.163879     -179.694458      -61.747986
 H         -64.585648     -179.459595      -60.723072
 H         -66.421165     -177.460983      -58.077290
 H         -64.893433     -178.319260      -58.310692
 H         -66.011559     -177.319153      -62.353764
 H         -64.625237     -178.001175      -62.640320
 H         -64.592422     -175.916580      -58.792870
 H         -66.023857     -175.827911      -59.814404
 H         -64.630692     -175.743164      -61.309895
 H         -63.339108     -176.970016      -60.701302
