20
 generated by VMD
 C         -31.083103      -78.356003      -26.254900
 N         -31.594496      -77.568901      -25.566833
 H         -29.207851      -77.418495      -22.871738
 H         -30.484697      -79.166321      -26.764725
 C         -28.801964      -78.419281      -22.603573
 C         -27.385359      -78.646629      -22.992010
 C         -29.550417      -79.542213      -22.094639
 C         -26.583248      -79.625847      -22.195356
 C         -28.782719      -80.609787      -21.372997
 C         -27.453117      -80.948212      -21.976328
 H         -26.944975      -77.628380      -23.047009
 H         -27.297684      -78.853935      -24.035521
 H         -30.225719      -79.013008      -21.328848
 H         -30.257490      -79.903053      -22.827707
 H         -26.464449      -79.125046      -21.234251
 H         -25.629986      -80.016777      -22.585066
 H         -29.384460      -81.532608      -21.394863
 H         -28.533560      -80.300705      -20.220629
 H         -26.952427      -81.558723      -21.215883
 H         -27.509499      -81.595192      -22.974560
