20
 generated by VMD
 C         -41.444283     -119.318436      -34.609241
 N         -40.769726     -119.593414      -35.504532
 H         -43.354580     -117.778625      -36.381142
 H         -41.918240     -118.820801      -33.844284
 C         -43.840027     -117.874329      -37.356842
 C         -42.996410     -118.061432      -38.579269
 C         -45.089512     -117.235855      -37.597927
 C         -43.755417     -118.483841      -39.921547
 C         -45.860592     -117.857536      -38.835602
 C         -45.120632     -117.760201      -40.161289
 H         -42.163624     -118.786514      -38.377743
 H         -42.576019     -117.020523      -38.862156
 H         -45.766308     -117.342247      -36.679363
 H         -44.769295     -116.193260      -37.659691
 H         -43.936386     -119.569748      -39.933090
 H         -43.023945     -118.210648      -40.842117
 H         -46.719025     -117.192947      -38.875671
 H         -46.300880     -118.799812      -38.568676
 H         -45.724232     -118.109276      -41.026081
 H         -44.955532     -116.753601      -40.385227
