20
 generated by VMD
 C         -41.998699     -101.509842      -33.053062
 N         -41.215031     -101.638924      -33.886059
 H         -38.913609     -103.297073      -32.536903
 H         -42.755241     -101.288254      -32.356579
 C         -37.858913     -103.439064      -32.194248
 C         -36.561356     -103.485466      -33.084980
 C         -37.703930     -103.735199      -30.671967
 C         -35.642033     -102.521828      -32.397507
 C         -36.428200     -103.169563      -30.006674
 C         -35.234322     -103.125183      -31.041975
 H         -36.914898     -103.039352      -34.068611
 H         -36.219437     -104.512489      -33.247307
 H         -38.712074     -103.496437      -30.302004
 H         -37.580959     -104.804565      -30.727333
 H         -36.103149     -101.529831      -32.220757
 H         -34.706287     -102.344879      -32.877495
 H         -36.039898     -103.617134      -29.149683
 H         -36.732510     -102.125946      -29.723188
 H         -34.537090     -102.527718      -30.456289
 H         -34.792965     -104.179771      -31.177275
