20
 generated by VMD
 C          -9.694540      -24.854216        0.590407
 N         -10.580082      -25.328449        0.088096
 H          -6.120003      -23.882227       -0.880785
 H          -7.906312      -23.566687       -1.010965
 C          -6.930140      -23.783037       -1.586435
 C          -7.227605      -25.072079       -2.487455
 C          -6.594482      -22.550402       -2.420887
 C          -8.185153      -24.790049       -3.752435
 C          -7.527595      -22.380236       -3.604870
 C          -7.594860      -23.631248       -4.497292
 H          -7.632009      -25.898792       -1.881220
 H          -6.226213      -25.350132       -2.978752
 H          -6.647012      -21.658140       -1.760565
 H          -5.573118      -22.679642       -2.693404
 H          -9.164649      -24.516680       -3.371750
 H          -8.230923      -25.664764       -4.358518
 H          -7.227096      -21.493612       -4.226324
 H          -8.574961      -22.172365       -3.287151
 H          -8.201308      -23.379097       -5.399688
 H          -6.667233      -23.902626       -4.959559
