20
 generated by VMD
 C         -23.366734      -54.163971      -14.987406
 N         -24.242493      -53.534786      -15.348532
 H         -20.186260      -54.743233      -15.535708
 H         -22.307558      -54.666092      -14.606417
 C         -19.277290      -55.108109      -14.848114
 C         -19.029867      -54.350445      -13.515222
 C         -19.049379      -56.596146      -14.879761
 C         -18.528383      -55.341553      -12.453570
 C         -18.109161      -57.324619      -13.878830
 C         -17.494221      -56.324024      -13.020509
 H         -19.970085      -53.976192      -13.192086
 H         -18.328259      -53.559761      -13.691018
 H         -20.038219      -57.077877      -14.618897
 H         -18.837063      -56.956173      -15.912464
 H         -19.384602      -55.786407      -11.935274
 H         -18.035763      -54.860073      -11.580875
 H         -17.335222      -57.963490      -14.407925
 H         -18.720587      -58.013168      -13.329453
 H         -16.842356      -56.801170      -12.265094
 H         -16.710974      -55.771400      -13.647177
