20
 generated by VMD
 C         -38.982063      -98.850143      -27.855379
 N         -38.523804      -99.879913      -27.564693
 H         -37.153976      -98.473938      -30.478207
 H         -39.319458      -97.885864      -28.001867
 C         -36.412575      -97.829582      -30.795805
 C         -35.623875      -98.269943      -32.090748
 C         -35.662693      -97.309540      -29.622786
 C         -34.457195      -97.313240      -32.272964
 C         -34.418365      -96.487068      -29.948326
 C         -33.609818      -97.180756      -30.984415
 H         -36.406212      -98.504066      -32.903172
 H         -35.151302      -99.240143      -31.893412
 H         -36.336365      -96.622154      -29.055868
 H         -35.500355      -98.166122      -28.975662
 H         -34.880985      -96.364967      -32.655754
 H         -33.715481      -97.853180      -32.991856
 H         -33.825672      -96.455925      -29.067293
 H         -34.648384      -95.456154      -30.264078
 H         -32.768501      -96.610603      -31.286968
 H         -33.203068      -98.133392      -30.512993
