20
 generated by VMD
 C         -30.283501      -75.913017      -23.134161
 N         -30.861282      -75.720390      -24.094976
 H         -29.434404      -78.304642      -21.586018
 H         -29.513643      -76.257065      -22.559427
 C         -28.376158      -78.054352      -21.673889
 C         -27.616409      -78.183441      -22.998600
 C         -27.654022      -77.747185      -20.449554
 C         -26.687159      -76.934975      -23.117201
 C         -26.890444      -76.393143      -20.701475
 C         -25.988277      -76.538223      -21.868904
 H         -28.349440      -78.217102      -23.865965
 H         -26.989037      -79.077629      -22.808411
 H         -28.415298      -77.556160      -19.572380
 H         -27.011911      -78.604889      -20.131094
 H         -27.322500      -76.066399      -23.355255
 H         -25.936626      -77.109398      -23.906279
 H         -26.232952      -76.266762      -19.814869
 H         -27.457346      -75.500587      -20.928297
 H         -25.390583      -75.605492      -22.085863
 H         -25.272541      -77.244659      -21.545113
