20
 generated by VMD
 C         -49.958191     -127.616409      -39.190708
 N         -49.204567     -126.723648      -39.143085
 H         -47.026432     -126.337013      -41.276005
 H         -50.642422     -128.456070      -39.293262
 C         -46.297031     -125.596260      -41.297939
 C         -45.091522     -126.022171      -40.450394
 C         -46.578537     -124.154167      -41.164768
 C         -43.816051     -125.109512      -40.739460
 C         -45.322548     -123.264793      -41.392143
 C         -44.146324     -123.640778      -40.571407
 H         -44.814125     -127.142731      -40.598221
 H         -45.291862     -125.902618      -39.342937
 H         -47.462418     -123.922577      -41.678375
 H         -46.981003     -123.846321      -40.126060
 H         -43.461750     -125.349541      -41.763840
 H         -43.055336     -125.450768      -40.002300
 H         -45.460667     -122.151901      -41.355980
 H         -45.039127     -123.440536      -42.462070
 H         -43.334766     -123.002640      -40.844074
 H         -44.347317     -123.494812      -39.479240
