20
 generated by VMD
 C         -69.834633     -183.167450      -65.824577
 N         -70.921867     -182.816681      -65.787910
 H         -67.711533     -183.586884      -63.119469
 H         -68.804298     -183.460617      -65.827515
 C         -67.550484     -183.116989      -62.151775
 C         -67.796204     -183.780670      -60.884155
 C         -67.289574     -181.671982      -62.217541
 C         -66.857353     -183.271545      -59.821217
 C         -66.535263     -181.060242      -60.982616
 C         -66.924553     -181.768021      -59.684902
 H         -67.508842     -184.797363      -61.137619
 H         -68.860855     -183.758499      -60.540108
 H         -66.811241     -181.394150      -63.098541
 H         -68.212624     -181.038116      -62.329445
 H         -65.773773     -183.345078      -60.039684
 H         -67.174065     -183.804916      -58.918697
 H         -66.791145     -180.000671      -61.044792
 H         -65.432961     -181.106995      -61.114433
 H         -66.416016     -181.353104      -58.915741
 H         -67.979271     -181.521378      -59.501377
