20
 generated by VMD
 C         -63.394653     -174.816040      -55.471710
 N         -62.572124     -174.409988      -56.149689
 H         -65.211655     -173.361145      -57.838490
 H         -64.250259     -175.169159      -54.928795
 C         -64.806656     -172.437622      -58.287788
 C         -64.958389     -171.166855      -57.558632
 C         -64.561676     -172.489731      -59.783394
 C         -64.068169     -170.010681      -58.156498
 C         -63.451221     -171.535767      -60.196041
 C         -63.958710     -170.093842      -59.700710
 H         -64.822327     -171.272186      -56.526733
 H         -65.980125     -170.703461      -57.784245
 H         -64.366493     -173.457504      -60.028843
 H         -65.395515     -172.295273      -60.367432
 H         -63.085072     -170.070572      -57.641586
 H         -64.585030     -169.076828      -57.829884
 H         -63.247490     -171.710510      -61.281284
 H         -62.464703     -171.876312      -59.730228
 H         -63.433857     -169.300018      -60.152485
 H         -65.000191     -170.066360      -60.117672
