20
 generated by VMD
 C         -50.637749     -130.906311      -46.377628
 N         -50.285572     -130.971664      -47.478436
 H         -48.255608     -132.037186      -44.294792
 H         -51.378796     -130.652527      -45.598446
 C         -48.540195     -132.355637      -43.296181
 C         -49.175152     -133.672852      -43.149834
 C         -48.438225     -131.400177      -42.129147
 C         -48.490047     -134.386520      -41.918270
 C         -47.860741     -132.120682      -40.911198
 C         -48.508278     -133.476532      -40.668396
 H         -48.976158     -134.360092      -44.044994
 H         -50.219284     -133.530884      -42.938057
 H         -47.702145     -130.442795      -42.371765
 H         -49.444679     -130.987427      -41.816692
 H         -47.438164     -134.647522      -41.963882
 H         -49.077446     -135.294357      -41.668304
 H         -48.077068     -131.583298      -39.998234
 H         -46.682907     -132.044296      -40.894382
 H         -47.856777     -133.936188      -39.907482
 H         -49.595539     -133.420746      -40.424553
