20
 generated by VMD
 C         -49.374893     -132.798706      -47.044407
 N         -50.024166     -131.838226      -47.057789
 H         -47.763214     -134.192062      -44.407368
 H         -48.539757     -133.500488      -46.950054
 C         -48.637585     -134.522461      -43.791439
 C         -49.074020     -135.993073      -43.845924
 C         -49.356773     -133.530655      -42.984184
 C         -49.965286     -136.374084      -42.650459
 C         -50.224621     -134.064926      -41.842590
 C         -50.979805     -135.360229      -42.329624
 H         -48.211845     -136.669800      -43.850361
 H         -49.630630     -136.214447      -44.826328
 H         -48.768402     -132.722366      -42.590057
 H         -50.015175     -133.018127      -43.779758
 H         -49.195427     -136.563110      -41.913326
 H         -50.445744     -137.281403      -42.954475
 H         -50.736977     -133.195755      -41.441933
 H         -49.598122     -134.429932      -41.059460
 H         -51.662590     -135.782608      -41.620224
 H         -51.566208     -135.198944      -43.201504
