20
 generated by VMD
 C         -21.969122      -55.381351      -17.514076
 N         -21.471598      -55.785034      -18.485462
 H         -21.313551      -56.709614      -13.957857
 H         -22.687899      -54.672195      -16.847504
 C         -21.117409      -57.829712      -14.038648
 C         -21.295994      -58.768673      -12.930185
 C         -20.918585      -58.311668      -15.555187
 C         -20.918839      -60.238411      -13.262417
 C         -20.307718      -59.698467      -15.669969
 C         -19.749313      -60.166256      -14.294785
 H         -22.316360      -58.784538      -12.644334
 H         -20.681311      -58.398708      -12.114522
 H         -21.934681      -58.223553      -16.112755
 H         -20.257933      -57.588669      -16.061800
 H         -21.792150      -60.812809      -13.701340
 H         -20.599279      -60.725964      -12.296784
 H         -19.368891      -59.622730      -16.223562
 H         -20.943169      -60.480988      -16.067535
 H         -19.394171      -61.157635      -14.402542
 H         -18.895334      -59.592602      -13.974279
