20
 generated by VMD
 C          -6.108820      -22.242109        1.939394
 N          -6.490242      -22.947754        2.703698
 H          -5.256233      -19.511545       -0.757397
 H          -6.824060      -20.306353       -0.258311
 C          -6.205794      -19.951353       -1.094735
 C          -5.757122      -21.132496       -1.945820
 C          -7.179276      -19.079525       -1.840353
 C          -6.905562      -21.965565       -2.549200
 C          -8.297187      -19.864855       -2.446333
 C          -7.913948      -21.065563       -3.302937
 H          -5.172701      -21.814634       -1.324044
 H          -5.075562      -20.736168       -2.717055
 H          -7.451402      -18.268484       -1.089069
 H          -6.611298      -18.486013       -2.597816
 H          -7.410121      -22.511322       -1.716848
 H          -6.513409      -22.759256       -3.219265
 H          -8.973142      -19.158125       -2.914245
 H          -8.866093      -20.309723       -1.602905
 H          -8.794770      -21.677006       -3.659257
 H          -7.397137      -20.744549       -4.246416
