20
 generated by VMD
 C          -2.634260      -16.818233        2.821437
 N          -2.054012      -16.941620        1.875539
 H          -4.680580      -15.972987        0.379188
 H          -4.449823      -17.211592       -0.869411
 C          -5.160773      -16.791288       -0.167385
 C          -6.263645      -16.181589       -1.021731
 C          -5.760618      -17.775326        0.851669
 C          -7.234928      -17.188271       -1.557407
 C          -6.590703      -18.880898        0.195341
 C          -7.758068      -18.172525       -0.525462
 H          -5.885181      -15.544308       -1.850654
 H          -6.742470      -15.501979       -0.325116
 H          -4.918834      -18.140360        1.478759
 H          -6.373168      -17.047810        1.539137
 H          -6.836364      -17.730913       -2.410363
 H          -8.022966      -16.666729       -2.038199
 H          -6.930322      -19.673332        0.926008
 H          -6.003297      -19.417086       -0.557710
 H          -8.484185      -18.877325       -0.978416
 H          -8.334945      -17.615261        0.254426
