20
 generated by VMD
 C         -41.056923     -119.310234      -34.786991
 N         -40.114552     -119.116310      -35.394360
 H         -43.567783     -117.190048      -36.296391
 H         -41.883205     -119.521736      -34.081284
 C         -43.963058     -117.455070      -37.287205
 C         -43.029751     -117.760574      -38.385632
 C         -45.257553     -116.852982      -37.582470
 C         -43.669930     -118.447182      -39.603249
 C         -45.930401     -117.496841      -38.814514
 C         -45.054115     -117.745293      -39.969299
 H         -42.270088     -118.506149      -37.980629
 H         -42.501781     -116.852119      -38.827484
 H         -45.822750     -116.974167      -36.729595
 H         -45.151043     -115.758186      -37.618195
 H         -43.916451     -119.567986      -39.491276
 H         -43.136513     -118.390587      -40.510220
 H         -46.736359     -116.834862      -39.074303
 H         -46.665108     -118.286865      -38.621128
 H         -45.491516     -118.164551      -40.807270
 H         -44.856091     -116.746712      -40.429485
