20
 generated by VMD
 C         -67.445831     -189.601288      -66.589127
 N         -66.325325     -189.831589      -66.778671
 H         -70.173485     -190.622726      -65.719673
 H         -68.560730     -189.491440      -66.658821
 C         -70.865433     -190.156662      -65.054550
 C         -72.101318     -190.923615      -64.665497
 C         -70.378120     -189.046188      -64.255699
 C         -73.146469     -190.053650      -63.936607
 C         -71.587166     -188.140121      -64.021767
 C         -72.591141     -188.908279      -63.144154
 H         -71.817078     -191.841827      -64.102943
 H         -72.658043     -191.240387      -65.523727
 H         -69.890694     -189.321075      -63.278149
 H         -69.678764     -188.479843      -64.799278
 H         -73.796379     -190.662567      -63.260662
 H         -73.668655     -189.582565      -64.743431
 H         -72.115814     -187.914520      -64.917999
 H         -71.262161     -187.179794      -63.601143
 H         -72.040001     -189.223724      -62.166180
 H         -73.469421     -188.363159      -62.850685
