20
 generated by VMD
 C         -72.698151     -198.713791      -65.611252
 N         -73.670525     -199.001526      -66.172890
 H         -70.953117     -196.017410      -67.557846
 H         -71.724754     -198.313187      -65.394737
 C         -72.006851     -196.158340      -67.762085
 C         -72.874741     -195.288406      -66.998795
 C         -72.444946     -196.847580      -68.989349
 C         -74.279755     -195.261353      -67.591423
 C         -73.944305     -197.340683      -68.996498
 C         -74.836868     -196.536545      -68.093163
 H         -72.449615     -194.265244      -67.183220
 H         -72.907005     -195.685257      -65.945702
 H         -72.340919     -196.068527      -69.782738
 H         -71.726082     -197.677246      -69.160675
 H         -74.226212     -194.571564      -68.417160
 H         -75.049805     -194.786392      -66.905853
 H         -73.892639     -198.415283      -68.707359
 H         -74.320518     -197.270264      -70.001213
 H         -75.789505     -196.526077      -68.559685
 H         -74.990738     -197.311340      -67.223518
