20
 generated by VMD
 C         -19.893982      -61.178516      -17.006874
 N         -19.590786      -60.600739      -16.031977
 H         -22.855234      -61.551579      -18.010685
 H         -20.296127      -61.535740      -18.062407
 C         -22.913601      -62.592167      -17.763420
 C         -24.070755      -63.215717      -18.502609
 C         -22.784302      -62.918694      -16.241585
 C         -24.331106      -64.710632      -18.016745
 C         -23.453289      -64.260757      -15.823287
 C         -24.712864      -64.665108      -16.566225
 H         -23.949352      -63.164780      -19.590151
 H         -25.001417      -62.669231      -18.325056
 H         -21.748430      -62.681835      -15.959374
 H         -23.401905      -62.187054      -15.665196
 H         -23.291714      -65.293121      -18.151417
 H         -25.147772      -65.073235      -18.674910
 H         -23.768974      -64.182655      -14.769655
 H         -22.716743      -65.022461      -15.672527
 H         -25.298273      -65.591957      -16.267319
 H         -25.333776      -63.735489      -16.456909
