20
 generated by VMD
 C         -50.379684     -130.996307      -46.430195
 N         -50.304596     -131.162994      -47.549248
 H         -48.625881     -131.760422      -44.224926
 H         -50.870075     -130.651825      -45.532669
 C         -48.694267     -132.263672      -43.306458
 C         -49.281643     -133.692032      -43.124142
 C         -48.543800     -131.466675      -42.058353
 C         -48.544884     -134.441544      -42.001404
 C         -47.855537     -132.269409      -40.952934
 C         -48.501923     -133.635468      -40.732143
 H         -49.392254     -134.185287      -44.039616
 H         -50.356003     -133.556137      -42.800816
 H         -48.009811     -130.571945      -42.253132
 H         -49.517441     -131.090057      -41.706963
 H         -47.650284     -134.675476      -42.533169
 H         -49.094215     -135.360550      -41.888092
 H         -48.034107     -131.703247      -40.027496
 H         -46.883381     -132.477753      -41.156090
 H         -48.065239     -134.306229      -39.968990
 H         -49.485710     -133.476196      -40.303635
