20
 generated by VMD
 C         -79.124245     -204.402405      -70.589546
 N         -80.099663     -204.967758      -70.652626
 H         -76.725266     -203.186188      -68.631081
 H         -78.286179     -203.814819      -70.683083
 C         -75.793419     -203.026321      -69.154800
 C         -75.711250     -202.133270      -70.386879
 C         -74.648643     -203.964050      -68.850861
 C         -74.394325     -201.418549      -70.367371
 C         -73.310204     -203.390228      -69.150848
 C         -73.240982     -202.524414      -70.352959
 H         -76.588692     -201.457596      -70.328491
 H         -75.811462     -202.788651      -71.232346
 H         -74.646439     -204.308960      -67.788048
 H         -74.846977     -204.932297      -69.341026
 H         -74.393883     -200.812531      -69.447304
 H         -74.251060     -200.778687      -71.262238
 H         -72.573586     -204.223953      -69.155678
 H         -72.959900     -202.828674      -68.338905
 H         -72.248100     -202.042374      -70.479973
 H         -73.180405     -203.172226      -71.207420
