20
 generated by VMD
 C          -9.230124      -24.065809        1.945059
 N          -9.121785      -25.125141        2.295799
 H          -7.603805      -23.364483       -0.846787
 H          -8.868115      -22.753168       -1.987262
 C          -7.803268      -23.038260       -1.906392
 C          -7.575497      -24.197966       -2.812459
 C          -6.920825      -21.865232       -2.238472
 C          -7.660985      -23.785738       -4.232837
 C          -6.953959      -21.449722       -3.694107
 C          -6.710690      -22.656017       -4.560537
 H          -8.362251      -24.965282       -2.542947
 H          -6.601322      -24.532810       -2.619196
 H          -7.117154      -20.994612       -1.570335
 H          -5.879731      -22.076513       -1.993335
 H          -8.682179      -23.417109       -4.463490
 H          -7.430202      -24.717411       -4.770458
 H          -6.268828      -20.609118       -3.932394
 H          -7.983678      -21.046623       -3.843058
 H          -6.685510      -22.457373       -5.631721
 H          -5.677885      -22.964638       -4.416188
