20
 generated by VMD
 C         -80.310287     -206.838684      -74.032249
 N         -80.566170     -206.647232      -75.137924
 H         -76.658447     -207.455780      -72.991096
 H         -80.222870     -207.193481      -72.962082
 C         -76.417969     -207.667526      -71.950806
 C         -75.384476     -206.813095      -71.413170
 C         -77.272690     -208.681595      -71.221008
 C         -75.459938     -206.634705      -69.930199
 C         -77.427650     -208.252670      -69.665894
 C         -76.023399     -207.853577      -69.148895
 H         -75.644157     -205.794388      -71.786438
 H         -74.306091     -207.032364      -71.712502
 H         -78.214714     -208.481354      -71.692154
 H         -76.936241     -209.753265      -71.372749
 H         -76.084854     -205.782639      -69.729958
 H         -74.498642     -206.489532      -69.477745
 H         -77.812424     -209.122482      -69.152733
 H         -78.126907     -207.362747      -69.510567
 H         -75.991653     -207.616821      -68.030960
 H         -75.446808     -208.713913      -69.380219
