20
 generated by VMD
 C         -50.784996     -129.644989      -45.386169
 N         -51.547359     -130.411606      -45.913666
 H         -48.749199     -130.432831      -43.621475
 H         -50.419083     -128.971390      -44.618767
 C         -48.205288     -130.644485      -42.774841
 C         -48.262802     -132.051971      -42.103512
 C         -47.760715     -129.438980      -41.933289
 C         -47.003403     -132.249420      -41.215195
 C         -46.529156     -129.866104      -41.056355
 C         -46.709824     -131.085861      -40.218792
 H         -48.253815     -132.733154      -43.024658
 H         -49.152046     -132.160202      -41.560966
 H         -47.581043     -128.531998      -42.448544
 H         -48.658451     -129.090363      -41.420158
 H         -46.109871     -132.343719      -41.940666
 H         -47.116882     -133.143921      -40.548126
 H         -46.273533     -129.031784      -40.362526
 H         -45.717995     -129.910461      -41.721828
 H         -45.725151     -131.264740      -39.747253
 H         -47.442547     -131.130676      -39.385201
