20
 generated by VMD
 C         -41.230164     -102.329193      -34.606411
 N         -41.348053     -101.893738      -35.640312
 H         -39.769115     -104.437805      -32.101738
 H         -41.491882     -102.616814      -33.554424
 C         -38.620197     -104.523293      -31.988995
 C         -37.649330     -103.780342      -32.861526
 C         -38.179047     -105.580063      -30.986340
 C         -36.260513     -103.643669      -32.216370
 C         -36.935043     -105.122978      -30.270002
 C         -35.848129     -104.777855      -31.244600
 H         -37.984055     -102.730659      -33.039314
 H         -37.565033     -104.255035      -33.855484
 H         -38.890804     -105.803940      -30.226196
 H         -38.075474     -106.487183      -31.695408
 H         -36.352856     -102.586082      -31.800568
 H         -35.398800     -103.593224      -32.924923
 H         -36.669548     -105.856041      -29.534336
 H         -37.063057     -104.146042      -29.640146
 H         -34.986698     -104.417580      -30.639746
 H         -35.513435     -105.743713      -31.734621
