20
 generated by VMD
 C         -40.925491     -101.233528      -32.806606
 N         -42.078888     -101.492142      -32.921852
 H         -38.554352     -103.227280      -32.425949
 H         -39.920387     -100.991928      -32.578838
 C         -37.623047     -102.764214      -32.026859
 C         -36.455990     -102.734375      -32.965431
 C         -37.439602     -102.861488      -30.526348
 C         -35.246922     -101.985352      -32.373409
 C         -36.188492     -102.202431      -29.976189
 C         -34.929981     -102.440491      -30.844404
 H         -36.804970     -102.291222      -33.965435
 H         -36.128853     -103.822701      -33.124977
 H         -38.307842     -102.378075      -30.201920
 H         -37.496212     -103.929924      -30.239885
 H         -35.558414     -100.919807      -32.276360
 H         -34.305698     -101.941971      -33.028545
 H         -35.860092     -102.536812      -28.905430
 H         -36.348442     -101.114922      -29.944143
 H         -33.957806     -101.961853      -30.532444
 H         -34.643131     -103.497086      -30.823681
