20
 generated by VMD
 C         -57.947041     -166.416626      -56.291492
 N         -58.292381     -167.160461      -55.440948
 H         -60.769012     -165.565002      -54.547993
 H         -57.723316     -165.646805      -57.025093
 C         -61.568268     -165.574905      -55.316593
 C         -61.751953     -166.822220      -56.211208
 C         -62.385342     -164.410263      -55.590618
 C         -63.255589     -167.220093      -56.257812
 C         -63.930653     -164.860123      -55.523251
 C         -64.211205     -165.993622      -56.554794
 H         -61.028427     -167.483002      -55.716927
 H         -61.283409     -166.664658      -57.146442
 H         -62.159218     -163.778244      -54.680218
 H         -62.156158     -163.863922      -56.490154
 H         -63.534458     -167.515686      -55.228031
 H         -63.403122     -168.028595      -56.956017
 H         -64.716095     -164.010208      -55.536449
 H         -64.112991     -165.317764      -54.547634
 H         -65.211433     -166.474930      -56.489418
 H         -64.114204     -165.766159      -57.675404
