20
 generated by VMD
 C         -13.914077      -28.752920       -7.144761
 N         -13.261229      -28.908340       -8.039768
 H         -11.685018      -30.362715       -4.967020
 H         -10.102699      -29.960896       -4.079967
 C         -10.802375      -30.772318       -4.417161
 C          -9.985509      -31.533415       -5.461575
 C         -11.014409      -31.742977       -3.217627
 C          -8.648673      -32.006428       -5.047928
 C          -9.617528      -32.188572       -2.713601
 C          -8.829828      -32.846722       -3.813478
 H          -9.947415      -30.778402       -6.319333
 H         -10.511827      -32.368526       -5.856459
 H         -11.637337      -31.261139       -2.456805
 H         -11.523986      -32.636330       -3.604882
 H          -7.969514      -31.172937       -4.720838
 H          -8.107831      -32.626957       -5.816788
 H          -9.627010      -32.857216       -1.902984
 H          -9.052188      -31.261292       -2.351273
 H          -7.845248      -33.206600       -3.443828
 H          -9.445360      -33.735397       -4.211266
