20
 generated by VMD
 C         -79.217133     -207.302689      -75.260719
 N         -78.704247     -207.139847      -76.306892
 H         -79.003662     -210.241959      -73.231590
 H         -79.755325     -207.603378      -74.395164
 C         -78.259850     -210.212128      -72.431404
 C         -77.256676     -209.097321      -72.300438
 C         -78.510513     -211.175888      -71.241783
 C         -76.880798     -208.626160      -70.769409
 C         -78.363113     -210.437820      -69.912666
 C         -77.064911     -209.700684      -69.767509
 H         -77.251297     -208.296097      -73.059654
 H         -76.368866     -209.713608      -72.492149
 H         -79.521019     -211.634644      -71.440796
 H         -77.769302     -211.971802      -71.080315
 H         -77.508362     -207.719101      -70.512367
 H         -75.798218     -208.290039      -70.667610
 H         -78.342781     -211.190872      -69.100746
 H         -79.276131     -209.881485      -69.932007
 H         -76.905907     -209.268372      -68.780029
 H         -76.291969     -210.501862      -69.743179
