20
 generated by VMD
 C         -41.555447     -119.748611      -34.197319
 N         -41.644276     -120.536858      -35.072895
 H         -43.336983     -118.695679      -37.081833
 H         -41.237057     -119.071442      -33.481514
 C         -43.855007     -118.464302      -37.962589
 C         -42.983200     -118.307350      -39.109272
 C         -45.285099     -117.899818      -37.790703
 C         -43.831657     -118.782333      -40.310226
 C         -45.953770     -118.095322      -39.098721
 C         -45.145329     -117.921318      -40.336456
 H         -42.192810     -119.044403      -39.152328
 H         -42.590435     -117.327850      -39.224907
 H         -45.829590     -118.295776      -36.889931
 H         -45.155663     -116.763557      -37.563755
 H         -44.051598     -119.893364      -40.317268
 H         -43.348225     -118.643784      -41.253117
 H         -46.897141     -117.447945      -39.319252
 H         -46.404987     -119.197624      -39.097984
 H         -45.695148     -118.214020      -41.271435
 H         -44.947998     -116.824211      -40.608528
