20
 generated by VMD
 C          -1.525532      -11.123064        1.560177
 N          -1.053890      -12.011771        1.028289
 H          -3.800086      -13.161105        0.141710
 H          -5.459067      -12.947904        0.931773
 C          -4.610137      -13.613531        0.755872
 C          -4.064734      -13.832208        2.271294
 C          -5.088402      -14.867697        0.129107
 C          -5.147439      -14.553589        3.111882
 C          -6.136698      -15.510491        1.028732
 C          -5.629925      -15.820521        2.430933
 H          -3.776463      -12.868884        2.691136
 H          -3.111110      -14.436996        2.242492
 H          -5.503529      -14.730865       -0.861337
 H          -4.290345      -15.568931        0.129881
 H          -6.004282      -13.845675        3.261548
 H          -4.703833      -14.766449        4.078806
 H          -6.420440      -16.407742        0.490583
 H          -7.028078      -14.842839        1.000237
 H          -6.503078      -16.168068        2.964447
 H          -4.900247      -16.597328        2.411919
