20
 generated by VMD
 C         -46.816803     -125.118858      -38.290810
 N         -47.876526     -125.150253      -37.844807
 H         -44.564476     -122.198433      -37.700230
 H         -45.755970     -125.048256      -38.642044
 C         -44.602631     -122.173256      -38.738014
 C         -43.530205     -122.701294      -39.566254
 C         -45.795513     -121.400352      -39.422947
 C         -43.966904     -123.403465      -40.831379
 C         -46.167267     -122.121712      -40.754456
 C         -44.933727     -122.494476      -41.681530
 H         -42.961296     -123.471558      -38.852051
 H         -42.779163     -121.952454      -39.825073
 H         -46.650555     -121.375999      -38.771107
 H         -45.524319     -120.295609      -39.668209
 H         -44.525581     -124.263138      -40.281998
 H         -43.059734     -123.731285      -41.337395
 H         -46.774738     -121.459518      -41.319191
 H         -46.794430     -122.886421      -40.543510
 H         -45.244129     -123.098785      -42.565868
 H         -44.493916     -121.576653      -42.075577
