20
 generated by VMD
 C         -39.751495     -105.436455      -37.286308
 N         -40.146206     -104.396133      -36.951546
 H         -39.504665     -108.497299      -35.391773
 H         -39.373047     -106.448166      -37.323399
 C         -39.592381     -108.594795      -34.334610
 C         -38.455242     -108.187904      -33.540546
 C         -40.485641     -109.655960      -33.856133
 C         -38.820076     -108.147346      -31.992153
 C         -40.915108     -109.545700      -32.446369
 C         -39.727322     -109.294609      -31.445391
 H         -38.141254     -107.255249      -33.810837
 H         -37.655861     -108.879005      -33.727837
 H         -41.265121     -109.685417      -34.656578
 H         -39.899849     -110.654213      -33.967815
 H         -39.407162     -107.139221      -31.801643
 H         -37.886116     -107.983559      -31.401634
 H         -41.560608     -110.304451      -32.072628
 H         -41.458546     -108.644165      -32.440643
 H         -40.042732     -109.061768      -30.510500
 H         -38.988407     -110.162086      -31.372576
