20
 generated by VMD
 C         -69.874573     -197.110550      -65.755806
 N         -68.907799     -196.491074      -65.556267
 H         -71.700630     -193.982376      -64.981880
 H         -70.782219     -197.630219      -65.948433
 C         -72.411125     -193.817825      -65.769119
 C         -72.633789     -192.420609      -66.141083
 C         -72.988281     -194.973907      -66.604813
 C         -73.711472     -192.068527      -67.146927
 C         -74.210045     -194.578857      -67.387566
 C         -74.105721     -193.183624      -68.083252
 H         -71.651352     -191.874847      -66.519104
 H         -72.672844     -191.809692      -65.223099
 H         -72.120430     -195.295212      -67.286705
 H         -73.147552     -195.855377      -65.904312
 H         -73.474579     -191.194489      -67.803413
 H         -74.625618     -191.699402      -66.632988
 H         -75.064758     -194.634766      -66.668701
 H         -74.346611     -195.336639      -68.119469
 H         -73.360115     -193.224533      -68.748474
 H         -74.980972     -192.808456      -68.745476
