20
 generated by VMD
 C          -1.802067       -8.658835       -0.319523
 N          -2.235504       -7.891256        0.369644
 H          -3.154356       -9.362272        2.460848
 H          -1.828361      -10.433066        2.758914
 C          -2.896182      -10.377252        2.894347
 C          -3.785296      -11.394468        2.147267
 C          -3.222291      -10.451752        4.420034
 C          -3.473175      -12.843624        2.675171
 C          -2.933315      -11.865058        4.951026
 C          -3.650303      -12.943873        4.183111
 H          -3.718864      -11.267683        1.066790
 H          -4.846309      -11.201138        2.304306
 H          -2.666803       -9.748726        4.974781
 H          -4.239268      -10.138685        4.618900
 H          -2.425339      -13.041821        2.396798
 H          -4.099950      -13.605715        2.133056
 H          -3.247636      -11.855635        6.000128
 H          -1.831689      -11.930175        4.926573
 H          -3.425337      -13.954822        4.560006
 H          -4.730296      -12.785313        4.441406
