20
 generated by VMD
 C         -11.753913      -41.397774       -6.540761
 N         -11.091713      -42.307964       -6.407825
 H         -14.723699      -42.162857       -8.271072
 H         -15.076916      -41.190624       -9.436293
 C         -15.288525      -42.228249       -9.159292
 C         -16.763763      -42.390091       -8.867402
 C         -14.741542      -43.193329      -10.237078
 C         -17.580250      -42.513920      -10.107774
 C         -15.598407      -43.175190      -11.459277
 C         -17.005205      -43.559990      -11.055364
 H         -17.103045      -41.485851       -8.398880
 H         -16.817314      -43.286411       -8.266664
 H         -13.756393      -42.922497      -10.485190
 H         -14.741806      -44.185863       -9.800553
 H         -17.587788      -41.532070      -10.563765
 H         -18.612669      -42.807198       -9.970409
 H         -15.124707      -43.785320      -12.321322
 H         -15.606873      -42.189720      -11.867639
 H         -17.627577      -43.690399      -11.973562
 H         -17.062752      -44.550045      -10.539993
