20
 generated by VMD
 C         -68.975082     -180.782181      -61.135960
 N         -69.903236     -181.000275      -60.491653
 H         -67.178009     -178.362595      -59.542168
 H         -68.123489     -180.712555      -61.742416
 C         -66.277992     -177.845108      -59.822132
 C         -65.901482     -177.957336      -61.264008
 C         -65.334190     -177.304810      -58.798687
 C         -64.995369     -176.656403      -61.674377
 C         -64.630386     -176.024887      -59.334381
 C         -63.891663     -176.380753      -60.662430
 H         -66.718376     -178.107956      -61.981007
 H         -65.163971     -178.751678      -61.433655
 H         -66.001778     -177.184708      -57.940868
 H         -64.663300     -178.135330      -58.529579
 H         -65.773224     -175.873032      -61.965958
 H         -64.633926     -176.834488      -62.680248
 H         -63.845367     -175.763016      -58.586815
 H         -65.382301     -175.239334      -59.285202
 H         -63.302677     -175.462082      -61.005219
 H         -63.246071     -177.311127      -60.506401
