20
 generated by VMD
 C         -60.711941     -153.951813      -51.343212
 N         -61.374443     -154.345871      -52.221725
 H         -57.571526     -153.809692      -52.548176
 H         -60.243965     -153.609695      -50.422417
 C         -56.782627     -153.460129      -51.881496
 C         -56.824871     -153.944656      -50.421867
 C         -55.727478     -152.488083      -52.313740
 C         -55.525238     -154.108734      -49.627266
 C         -54.416409     -152.871475      -51.554028
 C         -54.587955     -152.966446      -50.082695
 H         -57.409679     -154.918243      -50.478470
 H         -57.331802     -153.146896      -49.819122
 H         -55.557087     -152.484528      -53.357071
 H         -56.025848     -151.468079      -52.031113
 H         -55.182667     -155.125381      -49.799438
 H         -55.685459     -153.976471      -48.581299
 H         -53.746918     -151.965149      -51.704762
 H         -53.935616     -153.708221      -52.052017
 H         -53.604057     -153.139664      -49.576347
 H         -54.888134     -152.014572      -49.745049
