20
 generated by VMD
 C         -38.746189     -113.692596      -35.735893
 N         -37.814529     -114.380005      -35.827930
 H         -41.370365     -114.744492      -35.688480
 H         -39.430206     -112.914375      -35.786057
 C         -42.306805     -114.424622      -36.172459
 C         -42.423599     -114.605843      -37.685623
 C         -43.479301     -114.231461      -35.314392
 C         -43.627075     -115.365379      -38.098621
 C         -44.549732     -115.270493      -35.680450
 C         -44.834408     -115.092728      -37.230957
 H         -41.454361     -115.001831      -37.939091
 H         -42.486565     -113.595108      -37.982109
 H         -43.366276     -114.295837      -34.235741
 H         -43.929585     -113.297974      -35.615784
 H         -43.556889     -116.423035      -38.114784
 H         -43.859226     -115.060005      -39.164604
 H         -45.344555     -114.949524      -35.036888
 H         -44.220867     -116.285439      -35.632778
 H         -45.599171     -115.657272      -37.722469
 H         -45.089256     -114.061401      -37.381210
