20
 generated by VMD
 C         -19.373274      -59.801937      -17.056816
 N         -18.874439      -60.765995      -16.624517
 H         -22.830736      -61.303402      -17.829372
 H         -19.670214      -58.967934      -17.585617
 C         -23.500368      -61.981991      -17.331814
 C         -24.300816      -62.906784      -18.164711
 C         -23.244024      -62.358540      -15.864228
 C         -23.902134      -64.350891      -17.907621
 C         -23.396587      -63.826855      -15.401065
 C         -24.018091      -64.774330      -16.397230
 H         -24.021441      -62.817310      -19.198252
 H         -25.384424      -62.772816      -17.885153
 H         -22.254471      -62.091747      -15.633731
 H         -23.966675      -61.725288      -15.337409
 H         -22.899246      -64.615883      -18.190557
 H         -24.596313      -65.019249      -18.403696
 H         -23.836384      -63.900223      -14.362637
 H         -22.399632      -64.188011      -15.020889
 H         -23.948305      -65.812302      -16.151497
 H         -25.088856      -64.587418      -16.277252
