20
 generated by VMD
 C         -12.154986      -31.009901       -8.424520
 N         -11.955704      -30.631147       -7.371478
 H         -11.626035      -34.822815       -7.884274
 H         -12.845279      -34.153488       -6.920794
 C         -11.951976      -34.665413       -6.836788
 C         -10.815105      -33.886303       -6.107023
 C         -12.124675      -36.041943       -6.192307
 C         -11.174634      -33.590164       -4.637992
 C         -12.398462      -35.783264       -4.670793
 C         -11.348128      -34.932377       -3.931372
 H         -10.683998      -32.917717       -6.682112
 H          -9.877964      -34.385086       -6.267582
 H         -12.927112      -36.613846       -6.652374
 H         -11.238430      -36.682137       -6.268319
 H         -12.048342      -32.930389       -4.403991
 H         -10.319739      -32.971897       -4.190345
 H         -12.436553      -36.810177       -4.161763
 H         -13.422566      -35.351303       -4.485750
 H         -11.655950      -34.809566       -2.902435
 H         -10.340447      -35.449181       -3.958364
