20
 generated by VMD
 C         -79.512581     -206.705536      -74.952431
 N         -80.100433     -206.128967      -74.117523
 H         -78.532005     -206.474777      -71.345345
 H         -79.206490     -207.421341      -75.755135
 C         -77.611275     -206.828979      -71.007805
 C         -76.334991     -206.114365      -71.421478
 C         -77.221474     -208.174149      -70.279022
 C         -75.274750     -205.928665      -70.258987
 C         -76.277466     -207.985016      -69.156883
 C         -75.071922     -207.337082      -69.665825
 H         -76.680634     -205.166824      -71.734261
 H         -75.686302     -206.495880      -72.158096
 H         -78.149368     -208.562500      -69.754440
 H         -76.891998     -208.931335      -70.974487
 H         -75.752159     -205.326965      -69.417625
 H         -74.327766     -205.458923      -70.672493
 H         -75.950867     -208.931900      -68.676842
 H         -76.745575     -207.407211      -68.337189
 H         -74.502266     -207.179672      -68.787468
 H         -74.472908     -207.907135      -70.432266
