20
 generated by VMD
 C         -70.272591     -181.313004      -62.657265
 N         -70.928757     -180.429794      -63.015598
 H         -66.782967     -181.804718      -61.213963
 H         -69.656517     -182.097153      -62.195217
 C         -66.436340     -180.914307      -60.746639
 C         -64.982887     -180.853729      -60.142723
 C         -67.348633     -179.683884      -60.559124
 C         -64.290100     -179.669739      -60.837666
 C         -66.515541     -178.337021      -60.856857
 C         -65.048347     -178.397446      -60.477127
 H         -64.351746     -181.696228      -60.444397
 H         -65.028618     -180.615952      -59.018642
 H         -68.198013     -179.710953      -61.117355
 H         -67.642014     -179.719742      -59.492603
 H         -64.190231     -179.628998      -61.876122
 H         -63.287632     -179.607529      -60.508659
 H         -67.014046     -177.499619      -60.292164
 H         -66.667740     -178.192932      -61.939514
 H         -64.564323     -177.576233      -60.820156
 H         -65.084679     -178.364868      -59.346516
