20
 generated by VMD
 C         -47.911289     -134.659348      -46.599365
 N         -47.942238     -134.413269      -47.781960
 H         -50.256138     -134.519363      -44.904892
 H         -48.061741     -135.062988      -45.555782
 C         -50.629841     -135.393890      -44.503895
 C         -51.134094     -136.608994      -45.193996
 C         -51.194534     -135.212677      -43.130573
 C         -51.095623     -137.884430      -44.388359
 C         -51.037552     -136.530640      -42.268810
 C         -51.765903     -137.645737      -42.979496
 H         -50.612949     -136.848587      -46.162987
 H         -52.155514     -136.559738      -45.409534
 H         -50.570957     -134.467239      -42.550636
 H         -52.152657     -134.767181      -43.168243
 H         -50.110146     -138.257950      -44.104206
 H         -51.558041     -138.769012      -44.957485
 H         -51.563053     -136.325790      -41.279995
 H         -49.963486     -136.730484      -42.050415
 H         -51.685741     -138.543243      -42.450775
 H         -52.859451     -137.396484      -43.100468
