20
 generated by VMD
 C         -12.036713      -39.543678       -6.660478
 N         -10.999738      -39.306355       -6.925741
 H         -12.927586      -41.233143       -9.130211
 H         -14.207631      -39.925907       -8.804057
 C         -14.013267      -40.961121       -9.048079
 C         -14.646572      -41.895927       -8.025104
 C         -14.541729      -41.195923      -10.472192
 C         -16.159327      -41.666954       -8.024796
 C         -16.076309      -41.221947      -10.491260
 C         -16.631517      -42.107265       -9.438133
 H         -14.355140      -41.613670       -6.998918
 H         -14.423019      -42.906872       -8.297524
 H         -14.162365      -40.372639      -11.150619
 H         -14.224026      -42.142475      -10.833982
 H         -16.327909      -40.602631       -7.845039
 H         -16.607517      -42.374020       -7.290760
 H         -16.319651      -41.601566      -11.434784
 H         -16.466373      -40.144093      -10.546436
 H         -17.768038      -42.153515       -9.508112
 H         -16.375854      -43.187057       -9.597902
