20
 generated by VMD
 C         -11.331869      -34.184479       -8.717784
 N         -10.736068      -35.159431       -8.645947
 H         -11.920103      -37.259693       -7.529117
 H         -13.068125      -36.998367       -6.201656
 C         -12.860308      -37.633472       -7.122454
 C         -12.485570      -39.122360       -6.724470
 C         -14.016381      -37.660099       -8.109913
 C         -13.708529      -39.797890       -6.086433
 C         -15.249028      -38.278942       -7.438725
 C         -14.973026      -39.768887       -6.945130
 H         -11.608334      -39.034603       -6.044124
 H         -12.233348      -39.690395       -7.657348
 H         -14.207262      -36.641472       -8.437056
 H         -13.716471      -38.302429       -9.012239
 H         -13.978352      -39.356056       -5.089016
 H         -13.491027      -40.884537       -5.963557
 H         -16.105700      -38.249073       -8.077558
 H         -15.516263      -37.613228       -6.583484
 H         -15.772630      -40.119968       -6.284443
 H         -14.923182      -40.473133       -7.771128
