20
 generated by VMD
 C         -58.133793     -166.641113      -56.129887
 N         -58.122807     -167.343903      -55.251122
 H         -60.583321     -165.487961      -55.083588
 H         -58.213234     -165.908813      -56.875648
 C         -61.568729     -165.670609      -55.575260
 C         -61.808964     -166.947693      -56.482235
 C         -62.505199     -164.515854      -55.542786
 C         -63.292500     -167.239365      -56.429916
 C         -63.966049     -164.996567      -55.487865
 C         -64.245369     -166.051086      -56.583786
 H         -61.132389     -167.738251      -55.923607
 H         -61.556652     -166.658005      -57.439178
 H         -62.269855     -163.820053      -54.797951
 H         -62.448063     -163.910019      -56.464745
 H         -63.606339     -167.819046      -55.576836
 H         -63.587490     -167.937363      -57.169994
 H         -64.561127     -164.061981      -55.677750
 H         -64.136436     -165.443054      -54.509342
 H         -65.320137     -166.366592      -56.382530
 H         -64.149323     -165.482330      -57.584740
