20
 generated by VMD
 C         -31.732529      -76.477318      -24.648769
 N         -31.804228      -76.891861      -25.710579
 H         -29.475101      -77.335960      -22.579834
 H         -31.953283      -76.154243      -23.703093
 C         -28.559895      -77.746140      -22.226524
 C         -27.492887      -78.053581      -23.199030
 C         -28.643894      -78.598381      -21.008261
 C         -26.143749      -78.330070      -22.707520
 C         -27.205530      -79.014732      -20.475246
 C         -26.161051      -79.278206      -21.566042
 H         -27.595264      -77.312538      -24.103489
 H         -27.762125      -79.025284      -23.716129
 H         -29.217953      -78.125198      -20.259201
 H         -29.078220      -79.584076      -21.197927
 H         -25.578993      -77.447815      -22.351082
 H         -25.596964      -78.752556      -23.520891
 H         -27.441828      -79.873856      -19.911520
 H         -26.777479      -78.269798      -19.740778
 H         -25.143124      -79.102875      -21.069300
 H         -26.345072      -80.346825      -21.880136
