20
 generated by VMD
 C         -58.549740     -151.658859      -49.613380
 N         -59.216412     -152.193634      -48.875542
 H         -55.907185     -149.732513      -47.967411
 H         -57.978840     -151.152328      -50.408760
 C         -55.070858     -149.548462      -48.677410
 C         -54.175339     -150.551300      -49.413074
 C         -54.863396     -148.011444      -48.884045
 C         -54.226109     -150.287521      -50.960052
 C         -54.833897     -147.807648      -50.464741
 C         -53.871258     -148.821396      -51.200176
 H         -54.591259     -151.553909      -49.144230
 H         -53.190834     -150.430252      -48.981041
 H         -55.568409     -147.452072      -48.354603
 H         -53.909634     -147.631897      -48.550121
 H         -55.162441     -150.405823      -51.497944
 H         -53.446152     -150.937408      -51.346691
 H         -54.368610     -146.722076      -50.423763
 H         -55.786194     -147.799576      -50.900806
 H         -53.854870     -148.572403      -52.215092
 H         -52.830688     -148.697937      -50.772186
