20
 generated by VMD
 C         -10.613282      -35.746841       -9.168245
 N         -10.192421      -34.871830       -8.561969
 H         -12.996758      -36.940556       -6.874380
 H         -14.416111      -37.553677       -5.861630
 C         -13.721245      -37.791626       -6.706796
 C         -12.885778      -39.042202       -6.591016
 C         -14.659395      -37.801163       -7.863440
 C         -13.843584      -40.300262       -6.574256
 C         -15.620631      -38.950077       -7.748128
 C         -14.825669      -40.276772       -7.728857
 H         -12.357848      -38.951962       -5.604201
 H         -12.129375      -39.203022       -7.436061
 H         -15.306954      -36.923340       -7.811767
 H         -14.122539      -37.919914       -8.840735
 H         -14.360991      -40.308212       -5.625197
 H         -13.159204      -41.198986       -6.758200
 H         -16.266129      -38.940056       -8.572705
 H         -16.248280      -38.836277       -6.830044
 H         -15.479798      -41.120888       -7.636002
 H         -14.325899      -40.417561       -8.709918
