20
 generated by VMD
 C         -57.675724     -165.122253      -56.564659
 N         -57.235912     -164.302597      -57.209026
 H         -60.124462     -164.684113      -54.145317
 H         -58.024651     -165.932266      -55.936878
 C         -61.209473     -164.780655      -54.473141
 C         -61.939800     -165.963928      -54.045921
 C         -61.531933     -164.077942      -55.731365
 C         -63.480286     -165.872528      -54.281349
 C         -63.041412     -163.939850      -55.897793
 C         -63.787254     -165.256744      -55.629276
 H         -61.774242     -166.047211      -52.996811
 H         -61.542553     -166.800064      -54.607048
 H         -61.258404     -162.999161      -55.750362
 H         -61.067192     -164.590164      -56.627041
 H         -63.825123     -165.198792      -53.519901
 H         -63.845802     -166.801346      -53.974957
 H         -63.246059     -163.573532      -56.811424
 H         -63.372349     -163.219360      -55.171608
 H         -64.916580     -165.050964      -55.659267
 H         -63.461868     -165.895782      -56.505966
