20
 generated by VMD
 C         -38.631264     -113.392204      -36.240105
 N         -37.489521     -113.503792      -36.067524
 H         -41.368969     -114.529999      -35.167751
 H         -39.744221     -113.450356      -36.201469
 C         -42.290958     -114.514717      -35.715958
 C         -42.110954     -114.698792      -37.175037
 C         -43.577862     -114.106941      -34.981701
 C         -43.459476     -115.042778      -37.879814
 C         -44.629944     -114.913017      -35.694782
 C         -44.709949     -114.563835      -37.120632
 H         -41.442307     -115.464859      -37.513710
 H         -41.936619     -113.814430      -37.702702
 H         -43.497250     -114.552933      -33.953453
 H         -43.548744     -113.015823      -35.069614
 H         -43.529179     -116.125069      -38.136559
 H         -43.519669     -114.615448      -38.850460
 H         -45.492249     -114.535500      -35.192299
 H         -44.464447     -115.980286      -35.729450
 H         -45.619442     -115.120972      -37.592834
 H         -44.977192     -113.549568      -37.384960
