20
 generated by VMD
 C         -49.750404     -141.522797      -45.448265
 N         -49.578922     -142.598724      -45.079357
 H         -51.613605     -138.787750      -46.206951
 H         -49.827049     -140.518188      -45.807182
 C         -52.219013     -139.664032      -46.391266
 C         -52.517109     -139.848206      -47.911171
 C         -53.089520     -140.398315      -45.389706
 C         -53.091351     -141.277924      -48.296440
 C         -53.578106     -141.771851      -45.862865
 C         -54.119251     -141.769073      -47.291904
 H         -51.704433     -139.749207      -48.651230
 H         -53.295925     -139.099335      -48.063389
 H         -52.445026     -140.409760      -44.483238
 H         -54.017048     -139.837952      -45.322121
 H         -52.163216     -141.991379      -48.370770
 H         -53.684303     -141.179794      -49.305847
 H         -54.169678     -142.157913      -45.078869
 H         -52.725777     -142.359756      -45.999020
 H         -54.321964     -142.839661      -47.652191
 H         -54.961750     -141.062454      -47.401997
