20
 generated by VMD
 C         -28.465029      -74.100922      -18.434601
 N         -29.242640      -73.414825      -17.989302
 H         -25.386040      -71.884949      -18.786154
 H         -27.894867      -74.716530      -19.192070
 C         -25.427616      -72.057938      -19.826342
 C         -24.851528      -73.260178      -20.571043
 C         -25.701427      -70.769257      -20.550428
 C         -25.155933      -73.364441      -22.179441
 C         -26.359367      -70.923683      -21.874725
 C         -25.539875      -71.953033      -22.757366
 H         -25.206436      -74.106705      -20.004873
 H         -23.840349      -73.271889      -20.387648
 H         -26.242119      -70.167595      -19.809458
 H         -24.731373      -70.307762      -20.732132
 H         -25.998894      -73.946625      -22.450848
 H         -24.339128      -73.740150      -22.781927
 H         -26.363493      -69.990799      -22.375193
 H         -27.320616      -71.397148      -21.642977
 H         -26.286621      -72.062294      -23.632534
 H         -24.671593      -71.489159      -23.248690
