20
 generated by VMD
 C         -74.925507     -201.683914      -66.637833
 N         -74.957947     -201.576462      -65.464073
 H         -76.245049     -199.452179      -68.969124
 H         -75.171837     -201.803238      -67.679337
 C         -75.300453     -198.900269      -69.025627
 C         -74.901863     -197.626511      -68.413322
 C         -74.305519     -199.556290      -69.893799
 C         -73.417847     -197.625809      -67.981148
 C         -73.283707     -198.528595      -70.317459
 C         -72.608871     -197.632324      -69.212990
 H         -75.434212     -197.538712      -67.498917
 H         -75.285011     -196.707336      -69.003532
 H         -73.775864     -200.325195      -69.335464
 H         -74.875366     -199.839569      -70.834541
 H         -73.269913     -198.577698      -67.442154
 H         -73.289665     -196.730209      -67.405365
 H         -73.850433     -197.884491      -71.034096
 H         -72.503708     -199.053772      -70.834976
 H         -71.548019     -198.002502      -69.111961
 H         -72.419853     -196.605118      -69.416801
