20
 generated by VMD
 C         -38.696850     -113.680946      -35.716408
 N         -37.905186     -114.548836      -35.749908
 H         -41.384647     -114.741135      -35.760376
 H         -39.541374     -113.076897      -35.450516
 C         -42.287243     -114.406990      -36.232449
 C         -42.410236     -114.632095      -37.687614
 C         -43.494919     -114.280670      -35.431747
 C         -43.711151     -115.412849      -38.108727
 C         -44.498394     -115.338539      -35.819073
 C         -44.947231     -115.135323      -37.222614
 H         -41.525520     -115.205833      -38.002800
 H         -42.446701     -113.611176      -38.149353
 H         -43.293919     -114.429558      -34.358776
 H         -43.877167     -113.251724      -35.424644
 H         -43.653576     -116.512215      -37.900021
 H         -43.997635     -115.324608      -39.178402
 H         -45.191868     -115.315506      -35.001743
 H         -44.030479     -116.338539      -35.793297
 H         -45.679268     -115.824844      -37.700092
 H         -45.186653     -113.962166      -37.386078
