20
 generated by VMD
 C         -30.487579      -75.362419      -21.156504
 N         -31.618927      -75.272514      -20.951200
 H         -27.948780      -74.578888      -20.067093
 H         -29.317875      -75.485138      -21.185450
 C         -26.938438      -74.740669      -20.514994
 C         -26.586384      -76.001770      -21.377138
 C         -25.922647      -73.670914      -20.404835
 C         -26.096910      -75.580193      -22.681805
 C         -25.359732      -73.242210      -21.782192
 C         -24.940966      -74.550240      -22.505932
 H         -27.545609      -76.544708      -21.490356
 H         -25.739273      -76.426056      -20.893106
 H         -26.367109      -72.753937      -19.897928
 H         -25.095255      -73.973907      -19.666813
 H         -26.892702      -75.083618      -23.199974
 H         -25.753782      -76.416740      -23.290428
 H         -24.499857      -72.610191      -21.608025
 H         -26.017931      -72.830643      -22.531612
 H         -24.487432      -74.242302      -23.495550
 H         -24.022625      -75.058952      -22.079388
