20
 generated by VMD
 C         -13.835124      -28.187950       -3.456061
 N         -14.040686      -27.264757       -4.039714
 H         -10.251908      -28.893314       -2.676576
 H         -10.163892      -27.529942       -3.620524
 C          -9.547732      -28.315809       -3.293951
 C          -9.071746      -29.263779       -4.298573
 C          -8.439440      -27.638084       -2.459158
 C          -7.891268      -28.744350       -5.134573
 C          -7.333714      -27.056515       -3.333956
 C          -6.785176      -28.181690       -4.262985
 H          -9.895720      -29.388975       -4.979703
 H          -8.879619      -30.308060       -4.021401
 H          -8.825646      -26.845627       -1.836043
 H          -8.071951      -28.317047       -1.658070
 H          -8.338699      -28.107616       -5.932330
 H          -7.457908      -29.575806       -5.680748
 H          -6.512286      -26.684385       -2.702709
 H          -7.599391      -26.182287       -3.916570
 H          -6.090804      -27.630959       -4.863525
 H          -6.263341      -28.973963       -3.656926
