20
 generated by VMD
 C         -63.158798     -173.179596      -55.682674
 N         -63.008728     -173.962921      -54.802200
 H         -61.821121     -171.725586      -57.880730
 H         -63.256794     -172.332275      -56.409908
 C         -62.597267     -171.095612      -58.335484
 C         -62.511799     -169.654877      -58.007530
 C         -63.737255     -171.660019      -59.112473
 C         -63.684231     -168.730377      -58.377987
 C         -64.902397     -170.662720      -59.485855
 C         -64.988716     -169.640900      -58.307770
 H         -61.639954     -169.278473      -58.395184
 H         -62.380249     -169.463425      -56.843330
 H         -63.356247     -172.171051      -60.000706
 H         -64.226921     -172.512466      -58.775383
 H         -63.492973     -168.350708      -59.479965
 H         -63.786678     -167.796844      -57.750816
 H         -65.782333     -171.212082      -59.734619
 H         -64.674774     -170.183197      -60.417183
 H         -65.872787     -168.978271      -58.502220
 H         -65.130341     -170.005035      -57.307953
