20
 generated by VMD
 C         -50.841698     -129.720123      -46.128899
 N         -50.837349     -130.384659      -45.147820
 H         -48.296932     -131.669556      -44.432053
 H         -50.691246     -129.050415      -46.982090
 C         -47.972454     -131.595764      -43.360928
 C         -48.275497     -132.891251      -42.422783
 C         -47.932480     -130.398804      -42.529873
 C         -47.532711     -132.872330      -41.127556
 C         -47.234138     -130.435272      -41.155746
 C         -47.776672     -131.559784      -40.408531
 H         -48.060543     -133.710281      -43.037388
 H         -49.402561     -132.970032      -42.057224
 H         -47.460884     -129.516418      -43.131039
 H         -48.960548     -130.055298      -42.298882
 H         -46.435268     -133.073944      -41.228497
 H         -47.846451     -133.673096      -40.413258
 H         -47.422443     -129.517929      -40.584816
 H         -46.064941     -130.466553      -41.166512
 H         -47.257797     -131.753708      -39.464153
 H         -48.867428     -131.567429      -40.297794
