20
 generated by VMD
 C         -30.587961      -79.702370      -26.061964
 N         -30.895332      -78.593338      -26.177015
 H         -28.507595      -82.193634      -25.634287
 H         -30.323784      -80.668999      -25.714132
 C         -28.952950      -82.152954      -24.633104
 C         -27.994358      -81.585175      -23.507946
 C         -30.030457      -83.155869      -24.295008
 C         -28.774817      -81.294029      -22.199177
 C         -30.807997      -82.557159      -23.049196
 C         -29.741865      -82.419273      -21.911221
 H         -27.465120      -80.635902      -23.836460
 H         -27.243422      -82.342819      -23.252911
 H         -30.839006      -83.201378      -25.066267
 H         -29.570042      -84.088249      -24.145306
 H         -29.581682      -80.510162      -22.192009
 H         -28.060841      -81.091812      -21.400000
 H         -31.568335      -83.283211      -22.745848
 H         -31.288776      -81.638672      -23.181444
 H         -30.274033      -82.067101      -21.036589
 H         -29.112156      -83.303947      -21.861357
