20
 generated by VMD
 C         -30.445692      -74.489502      -21.069935
 N         -30.808075      -75.447105      -20.538733
 H         -27.327126      -74.790581      -19.446270
 H         -30.077089      -73.396156      -21.179802
 C         -26.837305      -74.561058      -20.374460
 C         -26.424776      -75.788544      -21.154512
 C         -25.960999      -73.354134      -20.415619
 C         -25.938377      -75.436279      -22.590488
 C         -25.523668      -72.927696      -21.803232
 C         -25.138128      -74.174545      -22.616800
 H         -27.320305      -76.508591      -21.194506
 H         -25.557966      -76.133659      -20.658026
 H         -26.506298      -72.621986      -19.809725
 H         -24.952311      -73.580620      -19.799755
 H         -26.823427      -75.313713      -23.203520
 H         -25.353523      -76.201584      -23.075079
 H         -24.735708      -72.118591      -21.763451
 H         -26.328827      -72.320618      -22.241199
 H         -24.824327      -73.799896      -23.584215
 H         -24.191099      -74.594841      -22.222076
