20
 generated by VMD
 C         -31.012238      -75.748169      -22.660145
 N         -31.057194      -74.817749      -23.283247
 H         -28.587423      -78.632004      -21.525135
 H         -31.271851      -76.387444      -21.735767
 C         -27.741045      -78.007301      -21.507942
 C         -26.831762      -78.226105      -22.690821
 C         -27.559555      -76.879410      -20.479063
 C         -26.251526      -76.898178      -23.153898
 C         -26.911484      -75.684471      -21.060747
 C         -25.741459      -76.017723      -21.961439
 H         -27.418221      -78.882935      -23.512394
 H         -25.991102      -78.931396      -22.379314
 H         -28.517044      -76.559166      -19.932549
 H         -26.769981      -77.187469      -19.773766
 H         -27.051218      -76.466499      -23.763769
 H         -25.369627      -77.087708      -23.783272
 H         -26.613008      -74.938187      -20.445410
 H         -27.673962      -75.193069      -21.644165
 H         -25.111259      -75.178047      -22.148983
 H         -24.957832      -76.671349      -21.417095
