20
 generated by VMD
 C         -68.536827     -194.036575      -66.619225
 N         -67.726852     -193.842621      -65.790565
 H         -70.108406     -190.913589      -66.201500
 H         -69.525513     -194.222183      -67.130112
 C         -71.144226     -190.999176      -65.831161
 C         -72.298264     -190.321442      -66.569939
 C         -71.424690     -191.521500      -64.504044
 C         -73.522118     -191.200500      -66.577255
 C         -72.945328     -191.517090      -64.146011
 C         -73.848122     -191.883774      -65.324028
 H         -72.025528     -190.029068      -67.649452
 H         -72.424393     -189.431351      -66.064476
 H         -70.980164     -192.565842      -64.467903
 H         -70.945618     -190.996338      -63.705433
 H         -73.608482     -191.958740      -67.419273
 H         -74.379089     -190.554169      -66.861237
 H         -73.159866     -190.487106      -63.910061
 H         -73.237770     -192.195572      -63.282303
 H         -73.718323     -192.925949      -65.466133
 H         -74.961075     -191.804398      -65.118904
