20
 generated by VMD
 C         -62.635193     -173.758698      -55.454964
 N         -63.609722     -174.166443      -54.978161
 H         -62.334557     -172.310410      -57.831490
 H         -61.686584     -173.458817      -55.876190
 C         -62.966824     -171.588043      -58.283192
 C         -62.785442     -170.034790      -57.730946
 C         -64.033562     -171.878296      -59.374584
 C         -63.764568     -169.058762      -58.375309
 C         -64.645599     -170.664597      -59.918900
 C         -65.049644     -169.647812      -58.863430
 H         -61.808174     -169.794418      -57.849594
 H         -62.907463     -170.101990      -56.570721
 H         -63.477528     -172.611801      -59.999336
 H         -64.747688     -172.512726      -58.884533
 H         -63.184525     -168.428085      -59.120720
 H         -64.089462     -168.302216      -57.627308
 H         -65.538605     -170.929337      -60.504421
 H         -63.922794     -170.242157      -60.676502
 H         -65.728569     -168.868881      -59.263279
 H         -65.564140     -170.125336      -58.097286
