20
 generated by VMD
 C         -61.645538     -154.586349      -53.934917
 N         -62.144058     -155.535416      -53.497334
 H         -58.142517     -154.749496      -52.371166
 H         -61.278423     -153.660233      -54.405998
 C         -57.239391     -154.687683      -51.779423
 C         -57.283646     -154.377472      -50.259674
 C         -55.922733     -154.602463      -52.478077
 C         -55.974716     -154.732910      -49.382156
 C         -54.729462     -154.985840      -51.552002
 C         -54.715324     -154.310562      -50.164539
 H         -58.123280     -154.853378      -49.820457
 H         -57.344910     -153.279556      -50.272430
 H         -55.947823     -155.278275      -53.360653
 H         -55.625458     -153.649963      -52.867088
 H         -56.074471     -155.850159      -49.365448
 H         -55.945496     -154.187653      -48.465229
 H         -53.825314     -154.602448      -52.043850
 H         -54.719147     -156.052475      -51.442287
 H         -53.793633     -154.482834      -49.657738
 H         -54.688351     -153.227921      -50.535423
