20
 generated by VMD
 C         -70.295731     -196.687424      -65.246292
 N         -69.571091     -197.298782      -65.912239
 H         -74.082504     -195.736481      -65.111008
 H         -70.933220     -195.964401      -64.722397
 C         -73.867058     -195.430344      -66.081528
 C         -73.159592     -194.088669      -66.077660
 C         -74.329071     -195.845276      -67.404617
 C         -72.432228     -193.909622      -67.407188
 C         -74.545403     -194.768555      -68.466934
 C         -73.403107     -193.663803      -68.526001
 H         -72.378693     -194.010910      -65.280022
 H         -73.776588     -193.275085      -65.633545
 H         -73.416595     -196.484787      -67.760292
 H         -75.211922     -196.500565      -67.277161
 H         -71.756310     -194.800613      -67.679604
 H         -71.683533     -193.097458      -67.278397
 H         -75.471649     -194.229721      -68.296997
 H         -74.720093     -195.379074      -69.379784
 H         -72.806152     -193.770798      -69.415962
 H         -73.843704     -192.703537      -68.463211
