20
 generated by VMD
 C         -78.105865     -204.215744      -69.571846
 N         -79.033806     -203.705353      -69.996979
 H         -76.341942     -202.917694      -67.964523
 H         -77.196243     -204.692886      -69.418564
 C         -75.500526     -202.512787      -68.627769
 C         -75.739632     -201.235016      -69.347824
 C         -74.239037     -203.236145      -68.924042
 C         -74.881836     -201.072769      -70.664787
 C         -73.101913     -202.434387      -69.515076
 C         -73.317078     -201.252075      -70.427185
 H         -75.619850     -200.357117      -68.745125
 H         -76.822800     -201.199905      -69.737511
 H         -73.829163     -203.660400      -68.035980
 H         -74.581734     -203.895996      -69.757500
 H         -75.143158     -200.118546      -71.079468
 H         -75.257767     -201.781815      -71.418839
 H         -72.535477     -203.108139      -70.199966
 H         -72.354279     -202.219254      -68.650757
 H         -72.836990     -200.320175      -69.812424
 H         -72.741577     -201.370758      -71.366547
