20
 generated by VMD
 C         -21.620768      -55.921722      -17.620705
 N         -20.653608      -55.324837      -17.980352
 H         -23.245073      -58.564888      -15.176750
 H         -22.412617      -56.275661      -16.933764
 C         -22.346989      -59.073551      -15.005564
 C         -21.683552      -58.912498      -13.768323
 C         -21.636982      -59.889927      -16.030243
 C         -20.913046      -60.193470      -13.253944
 C         -20.332397      -60.422142      -15.647182
 C         -20.333439      -61.094124      -14.305239
 H         -22.443413      -58.726959      -13.016974
 H         -21.131664      -57.996155      -13.723348
 H         -22.308224      -60.749352      -16.159718
 H         -21.516722      -59.288429      -16.946297
 H         -21.588026      -60.860573      -12.608465
 H         -20.114590      -59.914539      -12.533174
 H         -19.732470      -59.533234      -15.543561
 H         -19.872095      -61.036549      -16.410053
 H         -21.146118      -61.830524      -14.376158
 H         -19.438452      -61.644989      -14.043903
