20
 generated by VMD
 C         -40.866787     -104.101921      -36.675209
 N         -41.494781     -104.986946      -36.283981
 H         -39.131004     -104.857574      -33.711136
 H         -40.438160     -103.163391      -37.080742
 C         -38.788845     -105.800812      -33.136017
 C         -37.389606     -105.834915      -32.563957
 C         -39.446640     -107.050255      -33.341080
 C         -37.477871     -106.697998      -31.303047
 C         -39.518379     -107.954735      -32.169510
 C         -38.170250     -108.124580      -31.464508
 H         -37.178120     -104.844566      -32.305229
 H         -36.725758     -106.327660      -33.328239
 H         -40.349766     -106.750229      -33.874126
 H         -38.785633     -107.573929      -34.094017
 H         -38.114296     -106.201996      -30.562487
 H         -36.537556     -107.079185      -30.935722
 H         -39.858051     -108.933891      -32.531342
 H         -40.306984     -107.656578      -31.475290
 H         -38.231556     -108.698273      -30.533764
 H         -37.479408     -108.644882      -32.140614
