20
 generated by VMD
 C         -51.041664     -130.867599      -46.072701
 N         -50.400974     -130.097076      -46.777023
 H         -47.947254     -132.175125      -44.514870
 H         -51.672031     -131.499603      -45.473007
 C         -48.153053     -132.320663      -43.430599
 C         -48.510048     -133.660706      -42.945438
 C         -48.143341     -131.230164      -42.515816
 C         -48.203484     -134.008255      -41.493786
 C         -47.841404     -131.516205      -41.039135
 C         -48.605984     -132.800613      -40.566360
 H         -48.021568     -134.515137      -43.544662
 H         -49.523441     -133.840652      -43.150986
 H         -47.397511     -130.490509      -42.760490
 H         -49.057846     -130.651947      -42.729935
 H         -47.151806     -134.218079      -41.325394
 H         -48.711533     -134.882080      -41.088444
 H         -48.167503     -130.598022      -40.503166
 H         -46.804493     -131.764374      -40.803185
 H         -48.446655     -133.149002      -39.560616
 H         -49.700050     -132.504028      -40.616379
