20
 generated by VMD
 C         -49.845718     -142.078690      -45.183498
 N         -49.115856     -142.965958      -45.316460
 H         -51.570595     -139.203568      -46.061478
 H         -50.419128     -141.205734      -44.908173
 C         -52.316261     -139.895569      -46.439377
 C         -52.450649     -140.149124      -47.889969
 C         -53.578323     -140.467957      -45.596237
 C         -52.848953     -141.568558      -48.288013
 C         -54.169575     -141.757477      -46.109974
 C         -54.272743     -141.855728      -47.642265
 H         -51.466324     -139.905930      -48.272400
 H         -53.238735     -139.487885      -48.261482
 H         -53.176022     -140.505173      -44.519230
 H         -54.462097     -139.686096      -45.660370
 H         -52.218895     -142.279099      -47.840126
 H         -52.930901     -141.491318      -49.343765
 H         -55.170860     -141.828369      -45.675995
 H         -53.610893     -142.595139      -45.676037
 H         -54.434696     -142.903183      -47.848030
 H         -54.974331     -141.135834      -47.951202
