20
 generated by VMD
 C         -49.259129     -132.990005      -46.984268
 N         -48.298344     -133.095428      -47.726673
 H         -48.547565     -134.337723      -44.396736
 H         -50.175182     -133.356155      -46.428684
 C         -49.393650     -134.855545      -43.977383
 C         -49.675926     -136.258102      -44.391556
 C         -50.420143     -134.133255      -43.039585
 C         -50.219234     -137.172806      -43.175617
 C         -50.971703     -135.056091      -41.920559
 C         -51.361263     -136.435196      -42.482563
 H         -48.790916     -136.816116      -44.721382
 H         -50.407871     -136.285690      -45.184658
 H         -49.930477     -133.346588      -42.548843
 H         -51.270626     -133.745911      -43.584114
 H         -49.466476     -137.458527      -42.372684
 H         -50.487347     -138.101761      -43.626297
 H         -51.873768     -134.586960      -41.313778
 H         -50.085659     -134.996567      -41.197762
 H         -51.533733     -137.010727      -41.609612
 H         -52.260292     -136.347626      -43.280045
