20
 generated by VMD
 C         -47.723820     -125.361870      -39.092033
 N         -47.766834     -126.339371      -38.519661
 H         -45.795109     -123.201630      -37.840206
 H         -47.615368     -124.303635      -39.389675
 C         -45.304394     -123.008827      -38.859962
 C         -44.472385     -124.226379      -39.387875
 C         -45.687824     -121.903503      -39.778385
 C         -44.610241     -124.491875      -40.853603
 C         -45.759781     -122.272598      -41.274006
 C         -44.688400     -123.197113      -41.717232
 H         -44.685600     -124.995155      -38.713055
 H         -43.398315     -123.973419      -39.336430
 H         -46.673912     -121.574997      -39.329132
 H         -44.911861     -121.145699      -39.621338
 H         -45.678608     -124.786499      -40.841877
 H         -43.868340     -125.220673      -41.346523
 H         -45.599319     -121.304306      -41.959408
 H         -46.802681     -122.742180      -41.438885
 H         -44.836422     -123.421669      -42.762527
 H         -43.781811     -122.642159      -41.600876
