20
 generated by VMD
 C          -1.809194      -17.551500        2.055329
 N          -1.612020      -17.146120        3.075110
 H          -5.517152      -17.218645        0.963672
 H          -4.984905      -18.605761        0.012167
 C          -5.849524      -17.908812        0.169896
 C          -6.170328      -17.024691       -1.026103
 C          -6.973152      -18.764456        0.575279
 C          -6.994651      -17.577528       -2.162221
 C          -7.663072      -19.427292       -0.562696
 C          -8.152224      -18.399656       -1.641919
 H          -5.288685      -16.550564       -1.386569
 H          -6.792238      -16.160978       -0.642082
 H          -6.765522      -19.434420        1.398971
 H          -7.714770      -18.169071        1.103416
 H          -6.357389      -18.160839       -2.811566
 H          -7.326658      -16.791265       -2.864939
 H          -8.456288      -20.097895       -0.195089
 H          -6.912866      -20.148972       -1.056186
 H          -8.615242      -18.929525       -2.512658
 H          -8.889737      -17.699835       -1.249863
