20
 generated by VMD
 C          -1.424198      -11.678806        1.561436
 N          -1.115679      -12.323460        0.731828
 H          -3.893278      -12.940732        0.518886
 H          -5.644973      -13.100153        0.854797
 C          -4.661458      -13.602705        0.935946
 C          -4.433099      -13.935830        2.427692
 C          -4.811305      -14.908154        0.169895
 C          -5.622020      -14.656842        2.987509
 C          -5.968709      -15.808415        0.714914
 C          -5.786645      -15.953300        2.246312
 H          -4.264048      -13.001415        2.888092
 H          -3.521520      -14.570139        2.441846
 H          -4.987485      -14.698645       -0.891042
 H          -3.859999      -15.451080        0.293907
 H          -6.506328      -13.974707        2.956572
 H          -5.344954      -14.865093        4.010799
 H          -5.805830      -16.789663        0.219777
 H          -6.982209      -15.456337        0.413145
 H          -6.637159      -16.501167        2.658761
 H          -4.923327      -16.568657        2.413627
