20
 generated by VMD
 C         -40.461021     -106.048218      -37.081688
 N         -39.844204     -106.802864      -37.713280
 H         -38.649059     -107.714630      -34.211624
 H         -40.999073     -105.486359      -36.354038
 C         -39.043858     -108.741127      -34.093594
 C         -38.465805     -109.658745      -33.134251
 C         -40.572495     -108.837051      -34.514507
 C         -39.395439     -109.978882      -31.905260
 C         -41.475613     -109.231422      -33.328918
 C         -40.849838     -110.314880      -32.501392
 H         -37.528305     -109.289864      -32.756710
 H         -38.051846     -110.571800      -33.527203
 H         -41.028736     -107.951485      -34.934021
 H         -40.745678     -109.642929      -35.324928
 H         -39.259239     -109.014290      -31.313545
 H         -39.134060     -110.824173      -31.184872
 H         -42.531803     -109.413078      -33.547039
 H         -41.655380     -108.368675      -32.704090
 H         -41.492081     -110.469070      -31.655182
 H         -40.745628     -111.275192      -33.023540
