20
 generated by VMD
 C          -6.954291      -23.321615        2.504437
 N          -7.085089      -22.472702        1.814471
 H          -8.386629      -23.203983       -0.865570
 H          -9.151437      -22.277903       -2.209916
 C          -8.178808      -22.452864       -1.710131
 C          -7.286182      -23.247789       -2.735469
 C          -7.632113      -21.147924       -1.309346
 C          -7.022116      -22.366112       -3.965782
 C          -7.332657      -20.349905       -2.510369
 C          -6.476917      -21.033916       -3.523938
 H          -7.777256      -24.189325       -3.071867
 H          -6.295104      -23.376890       -2.227697
 H          -8.335216      -20.619080       -0.613526
 H          -6.763776      -21.207901       -0.660741
 H          -7.937329      -22.269732       -4.594407
 H          -6.298814      -22.890194       -4.647478
 H          -6.850682      -19.377600       -2.249507
 H          -8.285408      -19.966177       -2.930472
 H          -6.412710      -20.386732       -4.421533
 H          -5.446352      -21.082874       -3.091157
