20
 generated by VMD
 C         -68.832260     -193.791885      -64.556694
 N         -68.431725     -194.264725      -65.509911
 H         -71.091293     -193.572372      -67.779549
 H         -68.971069     -193.426697      -63.586895
 C         -71.852638     -193.070572      -67.198463
 C         -71.488358     -191.921341      -66.447212
 C         -73.210716     -193.753113      -67.287392
 C         -72.769928     -191.248611      -65.910942
 C         -74.312073     -193.245407      -66.295860
 C         -73.756233     -192.266693      -65.268234
 H         -70.828865     -191.248215      -67.003815
 H         -70.882500     -192.122482      -65.480446
 H         -73.486351     -193.696747      -68.322998
 H         -73.075806     -194.877029      -67.304840
 H         -73.318733     -190.666443      -66.747810
 H         -72.611153     -190.402679      -65.178314
 H         -74.869339     -194.105148      -65.859520
 H         -75.099632     -192.685379      -66.754944
 H         -74.439919     -191.695236      -64.757286
 H         -73.232323     -192.857178      -64.378601
