20
 generated by VMD
 C         -46.750805     -124.736961      -37.482956
 N         -46.904137     -124.647659      -36.332359
 H         -44.575237     -122.012062      -37.738445
 H         -46.431122     -124.510788      -38.528149
 C         -44.754215     -122.028183      -38.835583
 C         -43.416191     -122.240395      -39.652939
 C         -45.929024     -121.393692      -39.417809
 C         -43.638233     -122.383156      -41.116829
 C         -46.004936     -121.703018      -40.957451
 C         -44.723766     -121.442093      -41.700096
 H         -42.906864     -123.170700      -39.482700
 H         -42.706406     -121.509857      -39.383595
 H         -46.755291     -121.826424      -38.952705
 H         -45.932331     -120.309128      -39.141838
 H         -44.037529     -123.394363      -41.320782
 H         -42.592682     -122.103439      -41.575912
 H         -46.696640     -120.874207      -41.213432
 H         -46.651302     -122.611290      -41.227242
 H         -44.982513     -121.805740      -42.728146
 H         -44.549950     -120.403839      -41.852299
