20
 generated by VMD
 C         -12.332608      -31.475138       -8.838660
 N         -12.414406      -30.649656       -8.100204
 H         -10.833366      -34.840611       -7.746161
 H         -12.030803      -34.001335       -6.837165
 C         -11.353555      -34.815655       -6.753180
 C         -10.389065      -34.679134       -5.603466
 C         -12.292880      -36.046635       -6.571440
 C         -11.115876      -34.533920       -4.284705
 C         -13.072927      -35.909725       -5.231794
 C         -12.122821      -35.636959       -4.016116
 H          -9.800589      -33.802311       -5.759372
 H          -9.656462      -35.509708       -5.665602
 H         -13.032005      -36.015388       -7.360933
 H         -11.688538      -36.949554       -6.658836
 H         -11.618051      -33.553478       -4.306728
 H         -10.394725      -34.550472       -3.484531
 H         -13.720533      -36.731804       -5.025473
 H         -13.759958      -35.005306       -5.321588
 H         -12.712529      -35.244061       -3.191564
 H         -11.635316      -36.611294       -3.654138
