20
 generated by VMD
 C         -68.080223     -185.853424      -67.004883
 N         -68.289520     -184.891541      -67.640907
 H         -69.004951     -188.211639      -64.824715
 H         -67.826721     -186.771667      -66.385139
 C         -69.438934     -187.870392      -63.874176
 C         -68.981888     -186.526321      -63.336582
 C         -70.630844     -188.690979      -63.297993
 C         -69.433830     -186.182617      -61.888893
 C         -70.863411     -188.270096      -61.837151
 C         -70.772568     -186.775742      -61.576237
 H         -69.427673     -185.799759      -64.061668
 H         -67.897911     -186.352188      -63.427979
 H         -71.613846     -188.530624      -63.877464
 H         -70.430725     -189.806747      -63.277885
 H         -69.456329     -185.044357      -61.728474
 H         -68.800018     -186.467331      -61.055145
 H         -70.034058     -188.822281      -61.256401
 H         -71.908112     -188.608765      -61.583080
 H         -71.591736     -186.432480      -62.168407
 H         -70.929016     -186.489136      -60.520725
