20
 generated by VMD
 C         -60.053707     -157.507996      -55.939159
 N         -60.100372     -157.738724      -57.123871
 H         -60.043633     -157.223801      -52.613739
 H         -60.113720     -157.210464      -54.859329
 C         -59.260067     -157.962753      -52.745564
 C         -57.936913     -157.672256      -52.188118
 C         -59.518974     -159.459305      -53.098000
 C         -57.653538     -158.494141      -50.953987
 C         -59.112373     -160.278656      -51.860485
 C         -57.674786     -159.965347      -51.278271
 H         -57.619221     -156.653183      -51.920628
 H         -57.195034     -158.041718      -52.952984
 H         -60.601559     -159.654846      -53.266407
 H         -58.954796     -159.611771      -53.947021
 H         -58.435612     -158.429169      -50.127811
 H         -56.729649     -158.255112      -50.315460
 H         -59.237328     -161.382141      -52.038376
 H         -59.929298     -160.087738      -51.083000
 H         -57.658859     -160.576385      -50.294575
 H         -56.857517     -160.309113      -51.921032
