20
 generated by VMD
 C         -51.000698     -145.151367      -44.494297
 N         -51.048325     -146.309341      -44.543720
 H         -53.270016     -144.361572      -46.281425
 H         -51.093269     -144.100754      -44.538750
 C         -53.495029     -143.756775      -47.175838
 C         -52.588989     -143.798080      -48.462166
 C         -54.764866     -142.924316      -47.101318
 C         -53.468544     -143.672577      -49.824158
 C         -55.441856     -142.820557      -48.585186
 C         -54.441650     -142.551620      -49.723282
 H         -52.044525     -144.675735      -48.420109
 H         -52.009903     -142.903839      -48.434666
 H         -55.604984     -143.377151      -46.501034
 H         -54.563374     -141.940628      -46.603226
 H         -53.873344     -144.655640      -49.865963
 H         -52.889061     -143.630447      -50.689232
 H         -56.130554     -141.983749      -48.436264
 H         -56.177895     -143.580261      -48.875587
 H         -55.013279     -142.550110      -50.584026
 H         -53.981770     -141.672012      -49.504311
