20
 generated by VMD
 C         -69.031944     -187.839417      -67.800636
 N         -67.953857     -187.377563      -67.702957
 H         -68.306541     -187.295044      -64.124046
 H         -70.000671     -188.206009      -67.727737
 C         -69.132820     -187.375351      -63.428719
 C         -69.193794     -188.027908      -62.105400
 C         -70.356415     -186.791397      -63.872417
 C         -70.331009     -189.116257      -62.134647
 C         -71.571709     -187.701416      -63.792011
 C         -71.666290     -188.297012      -62.342430
 H         -69.388992     -187.275482      -61.380104
 H         -68.327904     -188.604996      -61.812729
 H         -70.391960     -185.819168      -63.325531
 H         -70.257439     -186.550003      -64.905792
 H         -70.344269     -189.635437      -61.193806
 H         -69.988525     -189.835800      -62.937008
 H         -71.484131     -188.531952      -64.516914
 H         -72.485985     -187.126083      -63.901531
 H         -71.820419     -187.355804      -61.877201
 H         -72.554878     -189.053757      -62.361858
