20
 generated by VMD
 C         -48.200001     -136.247742      -46.093884
 N         -47.009094     -136.091278      -46.132912
 H         -51.689472     -135.217850      -45.875114
 H         -49.280167     -136.388153      -45.918602
 C         -51.549870     -136.154663      -45.407494
 C         -52.249889     -137.350342      -45.983101
 C         -51.549572     -136.087463      -43.914455
 C         -51.921528     -138.670197      -45.380051
 C         -51.272640     -137.445267      -43.183735
 C         -51.976376     -138.601959      -43.775673
 H         -51.970448     -137.397385      -47.115025
 H         -53.290665     -137.169800      -46.015091
 H         -50.999928     -135.249954      -43.584545
 H         -52.570053     -135.769806      -43.784309
 H         -50.970543     -139.160202      -45.699577
 H         -52.784279     -139.319763      -45.551521
 H         -51.725197     -137.453796      -42.098732
 H         -50.246933     -137.702362      -43.124084
 H         -51.483349     -139.529205      -43.411266
 H         -53.100391     -138.554077      -43.375385
