20
 generated by VMD
 C         -27.638554      -86.708710      -26.715618
 N         -28.312094      -85.759460      -26.538082
 H         -30.951786      -85.968712      -25.348406
 H         -26.851267      -87.542854      -26.774185
 C         -31.807745      -86.637733      -25.541084
 C         -32.752045      -86.914841      -24.492609
 C         -32.055149      -87.181992      -26.904211
 C         -34.133293      -87.439804      -24.851677
 C         -33.544426      -87.452072      -27.284142
 C         -34.207870      -88.224548      -26.197956
 H         -32.888855      -85.960999      -23.852171
 H         -32.183578      -87.554054      -23.893021
 H         -31.555120      -86.486565      -27.595572
 H         -31.452021      -88.117958      -26.983418
 H         -34.843220      -86.684456      -25.144777
 H         -34.467007      -88.234505      -24.131224
 H         -33.518085      -88.028687      -28.167654
 H         -34.122410      -86.475319      -27.422495
 H         -35.260250      -88.517166      -26.473206
 H         -33.786953      -89.157127      -25.986479
