20
 generated by VMD
 C         -22.783009      -55.418682      -17.184389
 N         -23.082600      -54.422153      -17.656162
 H         -20.254244      -55.819176      -14.670075
 H         -22.083374      -56.114536      -16.777550
 C         -20.092129      -56.927200      -14.437376
 C         -20.655785      -57.334846      -13.114979
 C         -18.906624      -57.737934      -15.062688
 C         -20.983946      -58.887554      -13.146277
 C         -19.189537      -59.259823      -15.088750
 C         -19.768246      -59.748695      -13.698547
 H         -21.620331      -56.844875      -12.970057
 H         -19.897720      -57.088409      -12.288330
 H         -18.815042      -57.482044      -16.170624
 H         -17.980974      -57.458397      -14.492347
 H         -21.934116      -59.069466      -13.679558
 H         -21.097677      -59.343014      -12.124341
 H         -18.349756      -59.813072      -15.509649
 H         -20.031435      -59.405556      -15.802054
 H         -20.113907      -60.744038      -13.800770
 H         -19.018450      -59.639545      -12.885318
