20
 generated by VMD
 C         -61.599300     -154.601089      -53.930882
 N         -62.071938     -155.463593      -53.345345
 H         -58.111088     -154.545425      -52.216976
 H         -61.084709     -153.822952      -54.471203
 C         -57.149784     -154.637375      -51.720898
 C         -57.206833     -154.353836      -50.277943
 C         -55.884361     -154.572052      -52.531532
 C         -56.066219     -154.734756      -49.444706
 C         -54.738422     -154.927124      -51.606110
 C         -54.822872     -154.222763      -50.165440
 H         -58.164288     -154.924957      -49.979195
 H         -57.371178     -153.327454      -49.924103
 H         -55.992214     -155.264862      -53.351959
 H         -55.736435     -153.499985      -52.931004
 H         -55.749931     -155.759598      -49.308361
 H         -56.123852     -154.173203      -48.464539
 H         -53.768913     -154.783615      -52.106133
 H         -54.853779     -156.001801      -51.255394
 H         -53.861736     -154.525116      -49.620453
 H         -54.740810     -153.160904      -50.117157
