20
 generated by VMD
 C         -28.297985      -86.248276      -26.930843
 N         -27.605459      -85.574661      -26.289673
 H         -31.295504      -85.214684      -25.712067
 H         -29.099836      -86.783951      -27.536192
 C         -31.977026      -86.055489      -25.678062
 C         -32.564819      -86.868034      -24.384956
 C         -31.963232      -86.934570      -26.929754
 C         -34.019421      -87.199432      -24.614792
 C         -33.305691      -87.594902      -27.115515
 C         -34.027172      -88.085617      -25.898813
 H         -32.541916      -86.212845      -23.483322
 H         -31.872267      -87.689514      -24.299603
 H         -31.808384      -86.410881      -27.862459
 H         -31.235161      -87.808281      -26.876966
 H         -34.678867      -86.375946      -24.755001
 H         -34.565647      -87.722641      -23.747282
 H         -33.125778      -88.385567      -27.856585
 H         -33.903580      -86.882614      -27.682482
 H         -35.048100      -88.323135      -26.162905
 H         -33.543312      -88.988434      -25.648062
