20
 generated by VMD
 C         -60.375263     -153.315552      -51.996300
 N         -60.337357     -152.415955      -51.301266
 H         -57.523815     -153.728683      -50.008884
 H         -60.418480     -154.204376      -52.554379
 C         -56.618610     -153.180344      -50.226448
 C         -55.216545     -153.488632      -49.601421
 C         -56.762806     -151.841751      -50.820724
 C         -53.915516     -152.837921      -50.077465
 C         -55.456493     -151.544189      -51.560104
 C         -54.196011     -151.364944      -50.704266
 H         -54.887447     -154.554901      -49.329449
 H         -55.415920     -153.118759      -48.548203
 H         -57.509544     -151.897781      -51.591576
 H         -56.999260     -151.098145      -50.030792
 H         -53.618443     -153.497955      -50.908367
 H         -53.121593     -152.820892      -49.396374
 H         -55.493721     -150.573807      -52.050415
 H         -55.278278     -152.379013      -52.397102
 H         -53.331402     -151.012207      -51.161263
 H         -54.410286     -150.717422      -49.791641
