20
 generated by VMD
 C         -19.880352      -51.381626      -10.291695
 N         -20.713923      -51.190998       -9.454081
 H         -17.504917      -48.840111      -10.097567
 H         -19.214598      -51.746807      -10.989331
 C         -17.182781      -48.955738      -11.112821
 C         -16.379932      -50.101707      -11.649759
 C         -17.361183      -47.824360      -12.125953
 C         -16.459753      -50.516552      -13.168393
 C         -17.534908      -48.362316      -13.573623
 C         -16.357594      -49.289490      -14.035793
 H         -16.641346      -50.966183      -11.108891
 H         -15.366842      -49.803501      -11.356727
 H         -18.335943      -47.343868      -11.872791
 H         -16.534399      -47.113594      -12.002622
 H         -17.380976      -51.007080      -13.278098
 H         -15.721780      -51.237221      -13.456782
 H         -17.597700      -47.451420      -14.202345
 H         -18.463127      -48.829426      -13.744846
 H         -16.502613      -49.567802      -15.056522
 H         -15.415298      -48.820545      -13.921972
