20
 generated by VMD
 C         -79.275551     -204.556976      -70.766281
 N         -80.261017     -205.114243      -70.686317
 H         -76.661201     -202.686172      -68.481308
 H         -78.322548     -204.050873      -70.684822
 C         -75.864151     -202.971344      -69.129532
 C         -75.616783     -202.203766      -70.383896
 C         -74.780632     -203.971039      -68.848648
 C         -74.299728     -201.458481      -70.258209
 C         -73.319893     -203.545654      -69.234352
 C         -73.131836     -202.592056      -70.403435
 H         -76.437195     -201.523865      -70.753555
 H         -75.520409     -202.934647      -71.172310
 H         -74.725136     -204.016983      -67.760765
 H         -75.047157     -204.814056      -69.472061
 H         -74.286392     -200.892044      -69.269363
 H         -74.086029     -200.708359      -71.066399
 H         -72.735001     -204.347702      -69.512550
 H         -72.901283     -203.030792      -68.371986
 H         -72.174652     -202.043015      -70.329430
 H         -73.307915     -203.203064      -71.227524
