20
 generated by VMD
 C          -1.443459      -17.025551        2.105162
 N          -1.572474      -17.396431        3.146895
 H          -5.203900      -16.965496        0.766976
 H          -5.047545      -18.124592       -0.514385
 C          -5.804532      -17.551416        0.032464
 C          -6.454406      -16.700396       -0.984468
 C          -6.781920      -18.507803        0.721926
 C          -7.019251      -17.529655       -2.123727
 C          -7.556768      -19.315540       -0.366765
 C          -8.116838      -18.487328       -1.577341
 H          -5.772390      -15.963182       -1.455302
 H          -7.246810      -16.098885       -0.507202
 H          -6.177604      -19.160419        1.418769
 H          -7.433427      -17.905855        1.358854
 H          -6.185676      -18.144264       -2.589771
 H          -7.476282      -16.821457       -2.875079
 H          -8.348363      -19.818935        0.193576
 H          -6.903378      -20.053177       -0.766645
 H          -8.241943      -19.213345       -2.369424
 H          -9.048162      -17.943344       -1.398317
