20
 generated by VMD
 C         -40.727543     -100.161728      -30.139412
 N         -40.870213     -100.379929      -29.007936
 H         -37.411564      -99.736763      -30.401756
 H         -40.494961     -100.164970      -31.234005
 C         -36.356297      -99.960495      -30.877451
 C         -35.988037      -99.778648      -32.286419
 C         -35.300140      -99.844414      -29.797348
 C         -35.087879      -98.569153      -32.403603
 C         -34.368057      -98.650978      -30.005850
 C         -33.932602      -98.767159      -31.498905
 H         -36.811543      -99.503204      -32.879768
 H         -35.552361     -100.724800      -32.687958
 H         -35.785595      -99.690804      -28.881021
 H         -34.668938     -100.764702      -29.711535
 H         -35.662956      -97.655350      -32.285084
 H         -34.733318      -98.533318      -33.402466
 H         -33.527973      -98.870316      -29.388973
 H         -35.031376      -97.755936      -29.806845
 H         -33.181290      -97.917168      -31.678267
 H         -33.486885      -99.758049      -31.594439
