20
 generated by VMD
 C         -40.984940     -100.919312      -32.908989
 N         -41.895527     -101.404388      -32.373871
 H         -38.390434     -103.276062      -32.247662
 H         -39.945786     -100.610550      -33.173420
 C         -37.504246     -102.714966      -31.993464
 C         -36.342636     -102.750153      -32.843731
 C         -37.295486     -102.878349      -30.529209
 C         -35.169460     -101.791725      -32.388901
 C         -36.282139     -101.928482      -30.048462
 C         -34.965958     -102.004417      -30.882582
 H         -36.530846     -102.508659      -33.934792
 H         -35.883007     -103.751602      -32.917553
 H         -38.236942     -102.788857      -30.063337
 H         -36.908165     -103.861298      -30.233997
 H         -35.397190     -100.681725      -32.605312
 H         -34.129395     -102.085182      -32.871471
 H         -35.965698     -102.135742      -28.886337
 H         -36.677204     -100.921196      -29.994856
 H         -34.291008     -101.195412      -30.440094
 H         -34.536739     -103.015282      -30.697386
