20
 generated by VMD
 C         -32.181934      -92.961571      -25.919249
 N         -32.471977      -94.020134      -25.567459
 H         -33.967300      -95.001816      -28.722612
 H         -32.021679      -92.030327      -26.315445
 C         -34.093761      -93.945610      -28.872768
 C         -35.285225      -93.375671      -28.204506
 C         -33.641258      -93.110222      -30.024265
 C         -35.373955      -91.778961      -27.958099
 C         -33.581734      -91.600395      -29.643867
 C         -34.990356      -91.063408      -29.272869
 H         -35.486534      -93.821045      -27.191927
 H         -36.247299      -93.607956      -28.672724
 H         -32.673485      -93.398041      -30.479691
 H         -34.504791      -93.203720      -30.722595
 H         -34.656490      -91.583603      -27.124414
 H         -36.475220      -91.434853      -27.700439
 H         -33.185314      -91.047882      -30.556986
 H         -32.882500      -91.367973      -28.790066
 H         -34.760563      -90.020180      -29.012300
 H         -35.775803      -91.126656      -29.944695
