20
 generated by VMD
 C          -2.026736      -16.833063        2.861123
 N          -2.315686      -16.100693        2.071217
 H          -4.438427      -15.827092        0.146443
 H          -4.398066      -17.074444       -1.116432
 C          -5.034688      -16.593111       -0.343118
 C          -6.278239      -15.926804       -0.999866
 C          -5.391795      -17.587141        0.775128
 C          -7.461404      -16.946291       -1.232054
 C          -6.400306      -18.604879        0.285948
 C          -7.673885      -17.959734       -0.104226
 H          -6.041178      -15.586270       -2.035169
 H          -6.558718      -15.074224       -0.409519
 H          -4.490704      -18.158831        0.964200
 H          -5.735037      -16.986189        1.640520
 H          -7.155440      -17.601229       -2.135292
 H          -8.400280      -16.458897       -1.551447
 H          -6.521069      -19.379395        1.093487
 H          -5.961062      -19.134167       -0.560470
 H          -8.454261      -18.649504       -0.383368
 H          -8.109002      -17.438082        0.760561
