20
 generated by VMD
 C         -69.719589     -184.989929      -66.666359
 N         -69.029587     -184.651627      -67.533264
 H         -69.720375     -183.187820      -63.221386
 H         -70.385376     -185.240189      -65.895042
 C         -69.328613     -183.359741      -62.205120
 C         -69.581154     -184.430801      -61.247608
 C         -68.147903     -182.431885      -61.828697
 C         -68.238640     -185.121017      -60.945660
 C         -66.915154     -183.191101      -61.218098
 C         -67.206123     -184.297150      -60.290943
 H         -70.376854     -185.030228      -61.634773
 H         -70.012535     -184.006317      -60.293156
 H         -67.779984     -181.854385      -62.781166
 H         -68.449303     -181.629715      -61.152905
 H         -67.817917     -185.693115      -61.781296
 H         -68.551506     -185.913574      -60.226646
 H         -66.303139     -182.416840      -60.771076
 H         -66.172112     -183.610519      -61.919304
 H         -66.324837     -184.942642      -59.898701
 H         -67.706963     -183.813141      -59.398201
