20
 generated by VMD
 C         -26.183180      -71.880753      -17.379570
 N         -26.728226      -72.605591      -16.666067
 H         -24.614573      -69.383743      -18.614040
 H         -25.711025      -71.127197      -18.153418
 C         -24.776005      -69.624207      -19.628658
 C         -24.179375      -70.742050      -20.457733
 C         -25.659529      -68.845642      -20.452084
 C         -25.161741      -71.646767      -21.144548
 C         -26.630814      -69.726257      -21.202122
 C         -26.029877      -70.876640      -22.004230
 H         -23.614443      -71.380791      -19.715742
 H         -23.487375      -70.073280      -21.025114
 H         -26.174313      -68.125633      -19.809870
 H         -25.054914      -68.332123      -21.136963
 H         -25.766920      -72.334290      -20.477589
 H         -24.533396      -72.338791      -21.791357
 H         -27.204983      -69.146561      -21.946375
 H         -27.406034      -70.082764      -20.589573
 H         -26.833414      -71.606071      -22.390806
 H         -25.395733      -70.551834      -22.870272
