20
 generated by VMD
 C         -67.973526     -185.238617      -67.977272
 N         -67.600464     -185.481201      -66.914726
 H         -69.620201     -186.125656      -64.659523
 H         -68.302132     -184.943405      -68.965263
 C         -69.920700     -186.429947      -63.699009
 C         -70.708923     -185.398590      -62.845333
 C         -69.334686     -187.601715      -62.987522
 C         -70.177780     -185.192825      -61.407158
 C         -68.769943     -187.283051      -61.594090
 C         -69.830437     -186.568970      -60.808018
 H         -71.776779     -185.790314      -62.840218
 H         -70.707558     -184.413605      -63.375565
 H         -70.009781     -188.510788      -62.954735
 H         -68.395653     -187.922592      -63.535725
 H         -70.899750     -184.664474      -60.737156
 H         -69.335472     -184.497299      -61.364044
 H         -67.847809     -186.605896      -61.778439
 H         -68.546875     -188.152039      -60.955601
 H         -70.949265     -187.156067      -60.617851
 H         -69.277504     -186.524521      -59.814556
