20
 generated by VMD
 C         -12.245072      -30.809179       -8.457798
 N         -11.950541      -30.623688       -7.389498
 H         -11.600015      -34.694103       -7.863923
 H         -12.854471      -34.104462       -6.699864
 C         -11.845976      -34.687744       -6.799876
 C         -10.801247      -33.824814       -6.128712
 C         -12.124314      -35.983181       -6.092721
 C         -11.150927      -33.619301       -4.668973
 C         -12.381457      -35.773853       -4.596422
 C         -11.279558      -34.942554       -3.939187
 H         -10.708991      -32.881428       -6.580904
 H          -9.829678      -34.398647       -6.201193
 H         -13.049935      -36.450233       -6.488604
 H         -11.305510      -36.710476       -6.228000
 H         -12.072863      -33.058716       -4.690884
 H         -10.426851      -33.005116       -4.224605
 H         -12.589523      -36.683777       -4.117386
 H         -13.336514      -35.244884       -4.585070
 H         -11.568530      -34.642677       -2.903746
 H         -10.356335      -35.476788       -3.883991
