20
 generated by VMD
 C         -38.418972     -109.300728      -36.502480
 N         -37.360661     -108.849579      -36.307892
 H         -42.245445     -110.045517      -36.681751
 H         -39.468334     -109.606544      -36.620110
 C         -42.250332     -110.707802      -35.747936
 C         -41.662762     -112.124496      -36.034088
 C         -42.834957     -110.275742      -34.469021
 C         -40.813934     -112.581711      -34.774475
 C         -41.783817     -110.698395      -33.353687
 C         -41.431248     -112.185631      -33.393356
 H         -41.064922     -112.326920      -36.961288
 H         -42.526653     -112.875397      -36.189796
 H         -43.089813     -109.140724      -34.456753
 H         -43.725109     -110.914085      -34.253448
 H         -39.796074     -112.227943      -34.765999
 H         -40.720314     -113.683289      -34.813702
 H         -42.085621     -110.427612      -32.257530
 H         -40.850491     -110.093674      -33.659279
 H         -40.658894     -112.414597      -32.697498
 H         -42.331974     -112.864243      -33.356644
