20
 generated by VMD
 C         -18.322559      -49.076321       -7.669241
 N         -19.162771      -49.809116       -7.833032
 H         -16.228815      -47.296783      -10.044433
 H         -16.811659      -48.835625      -10.693143
 C         -16.459225      -47.859184      -10.971826
 C         -15.258375      -47.912174      -11.907812
 C         -17.623192      -47.098667      -11.654922
 C         -15.504390      -48.093319      -13.438735
 C         -17.983873      -47.826637      -12.986763
 C         -16.809595      -47.446362      -13.878016
 H         -14.595782      -48.743530      -11.652748
 H         -14.857312      -46.924995      -11.674519
 H         -18.491800      -47.156170      -10.988089
 H         -17.368660      -46.033440      -11.813347
 H         -15.532357      -49.165760      -13.694068
 H         -14.678830      -47.714703      -14.042737
 H         -18.959354      -47.471977      -13.440532
 H         -17.983946      -48.888393      -12.916256
 H         -17.009802      -47.758648      -14.881574
 H         -16.744896      -46.368149      -13.904316
