20
 generated by VMD
 C         -67.320671     -189.637222      -66.540695
 N         -66.293053     -189.692947      -67.014191
 H         -70.119286     -190.547913      -65.739746
 H         -68.260956     -189.406250      -66.039978
 C         -70.801750     -190.164474      -64.956276
 C         -72.032089     -190.857986      -64.539589
 C         -70.405807     -188.986038      -64.261536
 C         -73.223793     -190.090607      -63.934929
 C         -71.519272     -188.017136      -63.877663
 C         -72.682846     -188.782990      -63.205574
 H         -71.648834     -191.616974      -63.717918
 H         -72.481598     -191.471344      -65.399734
 H         -70.038910     -189.275299      -63.312019
 H         -69.756355     -188.322311      -64.900024
 H         -73.707748     -190.729492      -63.218472
 H         -73.900558     -189.776840      -64.798233
 H         -71.995270     -187.584045      -64.776886
 H         -71.007004     -187.266068      -63.305813
 H         -72.322136     -189.048553      -62.162239
 H         -73.579811     -188.212021      -62.863575
