20
 generated by VMD
 C         -58.806618     -160.156128      -56.989433
 N         -58.399719     -159.952942      -58.086643
 H         -58.752449     -162.146286      -54.987041
 H         -59.144520     -160.233749      -55.967690
 C         -59.513561     -162.127548      -54.199501
 C         -59.080891     -162.343994      -52.773941
 C         -60.935020     -162.298294      -54.722893
 C         -60.094887     -162.006302      -51.757252
 C         -61.880623     -162.026062      -53.593975
 C         -61.554096     -162.523315      -52.178051
 H         -58.118156     -161.751770      -52.514725
 H         -58.668514     -163.347900      -52.668060
 H         -61.094456     -161.598251      -55.484180
 H         -61.167274     -163.344147      -55.088341
 H         -60.251896     -160.967697      -51.588348
 H         -59.785255     -162.507034      -50.797737
 H         -62.817013     -162.218338      -54.143250
 H         -61.796997     -160.930222      -53.410961
 H         -62.306023     -162.151871      -51.491619
 H         -61.622379     -163.581909      -52.059364
