20
 generated by VMD
 C         -68.966011     -180.879181      -61.171501
 N         -69.931908     -180.901917      -60.539913
 H         -67.134911     -178.326218      -59.465420
 H         -68.071159     -180.838181      -61.819283
 C         -66.286163     -177.838959      -59.874722
 C         -65.851929     -178.019958      -61.369793
 C         -65.296364     -177.328293      -58.748066
 C         -65.038902     -176.830978      -61.706333
 C         -64.614502     -176.100845      -59.264015
 C         -64.040802     -176.324829      -60.633072
 H         -66.791534     -178.056961      -61.944633
 H         -65.442047     -179.078217      -61.441048
 H         -65.756828     -176.967621      -57.894840
 H         -64.530914     -178.084915      -58.449841
 H         -65.622841     -176.008438      -61.855629
 H         -64.422447     -177.147049      -62.534477
 H         -63.865860     -175.660049      -58.555756
 H         -65.362122     -175.348541      -59.542881
 H         -63.568447     -175.442627      -60.873226
 H         -63.265648     -177.039246      -60.506149
