20
 generated by VMD
 C         -31.677494      -75.788879      -23.928043
 N         -31.059467      -76.243904      -24.815779
 H         -29.555632      -78.453255      -22.419399
 H         -32.366035      -75.394920      -23.078543
 C         -28.532187      -78.252617      -22.105705
 C         -27.611502      -78.254333      -23.167038
 C         -28.149315      -78.067017      -20.661200
 C         -26.303062      -77.565422      -22.954624
 C         -26.750418      -77.521614      -20.440302
 C         -25.809000      -77.837448      -21.558704
 H         -28.113668      -77.812859      -24.179596
 H         -27.401623      -79.392502      -23.204950
 H         -28.862104      -77.451157      -20.200703
 H         -28.201349      -79.089760      -20.360371
 H         -26.442757      -76.480934      -23.031891
 H         -25.549549      -77.874931      -23.657619
 H         -26.253698      -77.875938      -19.494820
 H         -26.834423      -76.463776      -20.326946
 H         -24.820307      -77.296135      -21.346159
 H         -25.367718      -78.860825      -21.562204
