20
 generated by VMD
 C         -76.757164     -203.273712      -66.677101
 N         -77.539040     -203.850082      -66.034409
 H         -75.191490     -200.471451      -68.161804
 H         -76.190308     -202.783279      -67.400604
 C         -74.640503     -199.890320      -68.842598
 C         -74.875076     -198.453796      -68.713455
 C         -73.734077     -200.595352      -69.857735
 C         -73.539337     -197.882706      -68.850319
 C         -73.070160     -199.510178      -70.824936
 C         -72.850754     -198.136749      -70.273743
 H         -75.408371     -198.139648      -67.744698
 H         -75.463470     -198.124039      -69.591957
 H         -72.817650     -201.096405      -69.444412
 H         -74.195259     -201.459000      -70.306763
 H         -72.959328     -198.330200      -68.020676
 H         -73.510735     -196.775436      -68.751701
 H         -73.629913     -199.370468      -71.799973
 H         -72.114258     -199.971161      -71.235275
 H         -71.819916     -197.877716      -70.027687
 H         -73.193542     -197.349106      -70.950081
