20
 generated by VMD
 C         -40.423668     -117.522179      -34.539108
 N         -39.484734     -117.011368      -34.950840
 H         -41.923603     -116.117493      -37.201023
 H         -41.448277     -117.688507      -34.276848
 C         -42.805912     -116.522308      -37.587444
 C         -42.936905     -116.497055      -39.070927
 C         -43.995056     -116.300316      -36.694962
 C         -44.167110     -117.325218      -39.447880
 C         -45.277977     -116.918388      -37.288208
 C         -45.356567     -116.715996      -38.756710
 H         -42.032681     -116.862030      -39.539825
 H         -42.978630     -115.519424      -39.506115
 H         -43.857616     -116.758240      -35.635098
 H         -44.310867     -115.306961      -36.675133
 H         -44.266247     -118.428116      -39.305199
 H         -44.434971     -117.174576      -40.527973
 H         -46.065742     -116.342377      -36.750629
 H         -45.217857     -117.960968      -37.103123
 H         -46.228951     -117.023361      -39.121700
 H         -45.399738     -115.641663      -38.988865
