20
 generated by VMD
 C         -30.522757      -94.015846      -25.890444
 N         -30.501308      -93.624825      -24.816568
 H         -33.848682      -92.941315      -26.926294
 H         -30.526134      -94.286911      -26.934696
 C         -34.302910      -92.392662      -27.799002
 C         -35.743187      -92.663025      -28.117563
 C         -33.357929      -92.042137      -28.946224
 C         -36.275517      -91.401672      -28.676849
 C         -33.971230      -90.908943      -29.753395
 C         -35.515228      -90.969147      -29.909056
 H         -36.312843      -93.134262      -27.348167
 H         -35.738708      -93.432564      -28.824135
 H         -32.465675      -91.689873      -28.465303
 H         -33.184307      -92.975029      -29.538651
 H         -36.236362      -90.555984      -27.854240
 H         -37.300877      -91.531746      -28.985971
 H         -33.567482      -90.873428      -30.786865
 H         -33.585682      -90.003349      -29.241440
 H         -35.615028      -89.920517      -30.036036
 H         -35.744106      -91.348984      -30.859167
