20
 generated by VMD
 C         -59.246510     -152.510300      -50.878407
 N         -60.221210     -153.041000      -50.592480
 H         -57.070953     -151.792038      -48.903408
 H         -58.271271     -152.021454      -51.108635
 C         -56.192493     -151.440796      -49.402374
 C         -55.162193     -152.422470      -49.847961
 C         -55.752556     -149.972153      -49.566315
 C         -54.481411     -151.964539      -51.120750
 C         -54.768120     -149.456192      -50.620510
 C         -53.803856     -150.555328      -50.916798
 H         -55.514511     -153.521988      -50.005112
 H         -54.400780     -152.438583      -49.069942
 H         -56.643234     -149.319626      -49.514225
 H         -55.313725     -149.761261      -48.571289
 H         -55.153873     -151.983871      -51.967045
 H         -53.643692     -152.715149      -51.175339
 H         -54.261887     -148.524445      -50.387760
 H         -55.390236     -149.094406      -51.555862
 H         -53.272861     -150.323441      -51.798683
 H         -53.058571     -150.697357      -50.010628
