20
 generated by VMD
 C         -38.532131     -109.764053      -36.229214
 N         -37.738655     -109.008377      -35.878948
 H         -41.397152     -110.632484      -37.101006
 H         -39.189621     -110.545692      -36.630375
 C         -41.716953     -111.153236      -36.189690
 C         -42.031876     -112.704987      -36.168686
 C         -42.371094     -110.492935      -34.989799
 C         -41.493607     -113.313225      -34.910168
 C         -41.784748     -111.080917      -33.739464
 C         -42.080944     -112.531708      -33.711552
 H         -41.620636     -113.254944      -37.013714
 H         -43.130928     -112.871994      -36.362118
 H         -41.944191     -109.473755      -34.853569
 H         -43.451519     -110.607338      -34.908047
 H         -40.393444     -113.313293      -35.035873
 H         -41.832432     -114.362122      -34.835323
 H         -42.220577     -110.637245      -32.865433
 H         -40.741215     -110.917702      -33.812809
 H         -41.622471     -112.883469      -32.906887
 H         -43.200077     -112.544846      -33.659927
