20
 generated by VMD
 C         -59.285675     -158.330933      -56.157272
 N         -58.821789     -158.563507      -57.235104
 H         -60.688519     -157.931458      -52.852726
 H         -59.781643     -158.052368      -55.189789
 C         -60.083427     -158.835052      -52.956974
 C         -58.489964     -158.734985      -52.738918
 C         -60.620136     -160.187180      -53.257984
 C         -58.129673     -159.770981      -51.618286
 C         -60.110653     -161.246017      -52.237301
 C         -58.644520     -161.150894      -51.827183
 H         -58.256031     -157.679413      -52.426220
 H         -57.981037     -159.026489      -53.715645
 H         -61.732502     -160.175308      -53.425591
 H         -60.241844     -160.577606      -54.175045
 H         -58.556393     -159.356140      -50.721512
 H         -56.985294     -159.925613      -51.308395
 H         -60.155361     -162.269699      -52.519371
 H         -60.812214     -161.126862      -51.377747
 H         -58.592903     -161.927719      -51.012077
 H         -58.024532     -161.755203      -52.659992
