20
 generated by VMD
 C         -29.607916      -90.958115      -25.169542
 N         -28.982639      -91.884361      -25.034351
 H         -32.099049      -91.041977      -27.167675
 H         -30.080191      -89.943192      -25.324697
 C         -33.044037      -90.630272      -27.521662
 C         -34.285019      -91.569420      -27.505980
 C         -33.062695      -89.610855      -28.602911
 C         -35.585865      -90.686455      -27.454273
 C         -34.468903      -88.859818      -28.713213
 C         -35.722965      -89.803078      -28.701729
 H         -34.184464      -92.159935      -26.617271
 H         -34.265297      -92.192497      -28.466509
 H         -32.391300      -88.805595      -28.353584
 H         -32.862095      -90.141487      -29.528605
 H         -35.659286      -90.038956      -26.483597
 H         -36.380718      -91.480423      -27.383110
 H         -34.625320      -88.285049      -29.628586
 H         -34.652763      -88.118393      -27.896322
 H         -36.586475      -89.100258      -28.667160
 H         -35.714260      -90.494667      -29.609737
