20
 generated by VMD
 C         -27.483814      -84.587379      -26.362013
 N         -27.888767      -85.506393      -26.898809
 H         -31.088259      -84.915901      -25.908388
 H         -26.985170      -83.738808      -25.788946
 C         -31.940237      -85.620712      -25.746687
 C         -32.319630      -85.886398      -24.363493
 C         -32.220757      -86.592392      -26.860889
 C         -33.454067      -86.854172      -24.155510
 C         -33.521126      -87.459511      -26.756006
 C         -33.481918      -87.994949      -25.272621
 H         -32.635117      -84.921700      -23.943069
 H         -31.466246      -86.341270      -23.688202
 H         -32.373337      -85.930145      -27.781322
 H         -31.390446      -87.255211      -27.033426
 H         -34.344604      -86.203781      -24.292206
 H         -33.209644      -87.259659      -23.130213
 H         -33.472431      -88.263374      -27.542831
 H         -34.338394      -86.764488      -26.956068
 H         -34.273487      -88.695419      -25.053871
 H         -32.539268      -88.600647      -24.989174
