20
 generated by VMD
 C         -69.973770     -184.285904      -66.033875
 N         -69.003647     -184.071487      -66.685661
 H         -69.536377     -183.675903      -63.438335
 H         -70.826035     -184.386688      -65.452873
 C         -68.941360     -183.776871      -62.576969
 C         -69.135201     -184.668610      -61.442406
 C         -68.079041     -182.485138      -62.402260
 C         -67.953102     -184.821365      -60.473373
 C         -66.966393     -182.816818      -61.396564
 C         -67.303223     -183.513962      -60.146698
 H         -69.332695     -185.641235      -61.855835
 H         -69.921616     -184.356659      -60.749187
 H         -67.686882     -182.301941      -63.480488
 H         -68.609077     -181.568756      -62.084320
 H         -67.101685     -185.392502      -60.747871
 H         -68.279190     -185.271820      -59.514282
 H         -66.542625     -181.797577      -61.185703
 H         -66.244942     -183.500290      -61.847980
 H         -66.486603     -183.701126      -59.400257
 H         -68.086250     -182.913635      -59.511791
