20
 generated by VMD
 C         -40.844715     -104.028473      -36.881031
 N         -41.203136     -104.937653      -36.245564
 H         -39.094063     -105.285789      -34.235390
 H         -40.573238     -103.032341      -37.268379
 C         -38.926434     -106.025627      -33.431896
 C         -37.641018     -105.956322      -32.575054
 C         -39.618103     -107.336601      -33.315662
 C         -37.701912     -106.795258      -31.343092
 C         -39.511997     -108.243591      -32.034107
 C         -38.073475     -108.192734      -31.541269
 H         -37.314045     -104.980194      -32.415749
 H         -36.718712     -106.326660      -33.083649
 H         -40.639622     -106.998436      -33.506794
 H         -39.378002     -108.130371      -34.099106
 H         -38.313492     -106.215446      -30.621649
 H         -36.712990     -106.729652      -30.845520
 H         -39.947113     -109.269882      -32.163017
 H         -40.145412     -107.686409      -31.320995
 H         -38.002026     -108.768250      -30.591171
 H         -37.306713     -108.648346      -32.177059
