20
 generated by VMD
 C         -39.373074     -116.374580      -35.093082
 N         -39.419941     -115.460831      -34.405338
 H         -41.500164     -115.746529      -37.487736
 H         -39.059059     -117.238075      -35.699421
 C         -42.522163     -115.864937      -37.566795
 C         -42.999088     -115.804306      -38.967781
 C         -43.353645     -115.689301      -36.332619
 C         -44.418636     -116.315224      -39.103397
 C         -44.629082     -116.509766      -36.536613
 C         -45.266933     -116.060051      -37.870228
 H         -42.250633     -116.329994      -39.580856
 H         -42.960625     -114.752838      -39.243137
 H         -42.963272     -116.106865      -35.398602
 H         -43.754005     -114.707527      -36.319897
 H         -44.386047     -117.404343      -39.143856
 H         -45.055504     -116.058228      -40.008392
 H         -45.355873     -116.314323      -35.731983
 H         -44.349030     -117.583969      -36.612022
 H         -46.274750     -116.743866      -37.893276
 H         -45.673649     -114.973984      -37.850975
