20
 generated by VMD
 C          -1.366272       -9.587344        1.169076
 N          -1.838501       -9.819251        0.150637
 H          -3.034234      -11.978178        1.557128
 H          -3.920196      -12.130721        3.032328
 C          -3.649077      -12.673786        2.109372
 C          -2.996873      -14.012183        2.533376
 C          -4.989708      -12.856876        1.407582
 C          -3.958785      -14.894240        3.215630
 C          -5.963094      -13.728020        2.308743
 C          -5.287495      -15.117148        2.520804
 H          -2.144448      -13.689625        3.162791
 H          -2.502934      -14.356677        1.636879
 H          -5.462463      -11.858438        1.185213
 H          -4.855210      -13.439516        0.430796
 H          -4.195693      -14.506718        4.288502
 H          -3.525276      -15.929897        3.394880
 H          -6.911928      -13.815021        1.809358
 H          -6.189092      -13.254129        3.246946
 H          -5.874035      -15.719891        3.235988
 H          -5.200712      -15.701752        1.618214
