20
 generated by VMD
 C         -58.956249     -159.210831      -57.588573
 N         -58.366428     -160.125992      -57.779369
 H         -58.880497     -161.130386      -54.769657
 H         -59.565289     -158.365021      -57.409573
 C         -59.496189     -161.666687      -54.065437
 C         -58.828140     -161.944275      -52.713596
 C         -60.834301     -162.100311      -54.514645
 C         -59.894489     -161.742188      -51.532871
 C         -61.746872     -161.844589      -53.269459
 C         -61.232960     -162.467178      -51.925243
 H         -58.040615     -161.210876      -52.549240
 H         -58.364040     -162.880554      -52.743977
 H         -61.282688     -161.592957      -55.460781
 H         -60.749516     -163.182388      -54.799221
 H         -60.069946     -160.697281      -51.395424
 H         -59.628609     -162.256271      -50.605621
 H         -62.719612     -162.255585      -53.416111
 H         -61.892132     -160.755234      -53.232384
 H         -62.059757     -162.267181      -51.134769
 H         -61.043629     -163.535294      -52.041653
