20
 generated by VMD
 C         -29.430199      -89.661362      -25.799675
 N         -29.524141      -88.571060      -25.330538
 H         -31.535513      -90.507408      -27.327332
 H         -29.362823      -90.608421      -26.392548
 C         -32.526512      -90.021622      -27.365120
 C         -33.467552      -90.450218      -26.323246
 C         -32.914566      -89.327301      -28.645750
 C         -34.374317      -89.175377      -26.008652
 C         -33.807846      -88.165756      -28.257572
 C         -34.968056      -88.501228      -27.278131
 H         -32.991219      -90.714531      -25.330784
 H         -34.093815      -91.289574      -26.679523
 H         -31.953281      -89.068459      -29.154373
 H         -33.577885      -89.988800      -29.353813
 H         -33.744270      -88.478951      -25.378645
 H         -35.240112      -89.434357      -25.220360
 H         -34.377136      -87.814049      -29.196791
 H         -33.278545      -87.231796      -27.947992
 H         -35.347458      -87.510414      -27.047113
 H         -35.709774      -89.208961      -27.722496
