20
 generated by VMD
 C         -22.472795      -52.259369      -11.625326
 N         -22.259554      -52.709377      -10.608722
 H         -20.057432      -52.535301      -14.226051
 H         -22.864157      -51.988232      -12.487690
 C         -18.961939      -52.312912      -13.940322
 C         -17.898092      -51.758385      -14.856048
 C         -18.519077      -52.750084      -12.576496
 C         -16.513029      -52.138775      -14.528629
 C         -17.163645      -52.153080      -12.098838
 C         -15.989260      -52.138020      -13.103914
 H         -18.032629      -50.665146      -14.669433
 H         -18.103619      -51.925987      -15.953074
 H         -19.252289      -52.418350      -11.842488
 H         -18.527575      -53.816277      -12.559571
 H         -15.796962      -51.537479      -15.100797
 H         -16.369799      -53.154297      -14.942743
 H         -16.948193      -52.608501      -11.111575
 H         -17.319290      -51.021507      -11.906108
 H         -15.299006      -51.256935      -13.027117
 H         -15.294810      -52.992069      -12.897482
