20
 generated by VMD
 C         -70.237518     -196.690811      -65.321342
 N         -69.428993     -197.108444      -66.027138
 H         -73.780365     -195.844620      -65.273201
 H         -70.881767     -196.129593      -64.684891
 C         -73.930878     -195.082413      -66.020607
 C         -73.044662     -193.957901      -65.984169
 C         -74.520782     -195.797592      -67.229523
 C         -72.424194     -193.679153      -67.302002
 C         -74.368217     -194.916626      -68.513824
 C         -73.404747     -193.698029      -68.441475
 H         -72.259590     -194.319824      -65.160027
 H         -73.459679     -193.106827      -65.543648
 H         -73.887161     -196.605484      -67.298531
 H         -75.523643     -196.084198      -66.968079
 H         -71.772369     -194.516403      -67.517334
 H         -71.763382     -192.807510      -67.375557
 H         -75.360611     -194.622635      -68.800377
 H         -74.034279     -195.482773      -69.429886
 H         -72.882599     -193.756668      -69.351639
 H         -74.103081     -192.729874      -68.482964
