20
 generated by VMD
 C         -27.522442      -84.624702      -26.481823
 N         -27.690165      -85.763504      -26.791309
 H         -31.117847      -85.034248      -25.740545
 H         -27.324476      -83.673172      -26.161676
 C         -32.015682      -85.642975      -25.799128
 C         -32.434547      -86.001518      -24.414532
 C         -32.229065      -86.614342      -26.925694
 C         -33.663219      -87.039932      -24.248041
 C         -33.496983      -87.427650      -26.711670
 C         -33.509048      -88.079918      -25.317595
 H         -32.771217      -85.159424      -23.816801
 H         -31.587317      -86.569969      -23.836931
 H         -32.266243      -85.981300      -27.865789
 H         -31.308355      -87.152290      -26.920084
 H         -34.589218      -86.419456      -24.432837
 H         -33.475685      -87.581474      -23.304272
 H         -33.547352      -88.243591      -27.444214
 H         -34.362923      -86.746567      -26.825308
 H         -34.297165      -88.771637      -25.150545
 H         -32.634884      -88.746307      -25.318016
