20
 generated by VMD
 C         -59.047455     -168.358215      -55.111588
 N         -57.972878     -168.847855      -54.882092
 H         -62.551582     -169.060608      -55.815945
 H         -60.042286     -167.895966      -55.207310
 C         -62.549622     -168.087051      -56.349682
 C         -62.703594     -168.134979      -57.828503
 C         -62.848946     -166.785492      -55.572548
 C         -64.111305     -167.602951      -58.178635
 C         -64.149948     -166.263443      -56.051682
 C         -64.339005     -166.281158      -57.542480
 H         -62.571735     -169.170486      -58.193508
 H         -61.860069     -167.464645      -58.355896
 H         -62.725086     -167.026886      -54.540573
 H         -62.015156     -166.065964      -55.808712
 H         -64.958801     -168.268723      -57.995888
 H         -64.248978     -167.423691      -59.245049
 H         -64.226624     -165.255936      -55.644295
 H         -65.066498     -166.771393      -55.730759
 H         -65.387894     -166.074600      -57.793137
 H         -63.863956     -165.480331      -58.028461
