20
 generated by VMD
 C          -9.242395      -24.106419        1.859223
 N          -9.195836      -25.164042        2.243581
 H          -7.648510      -23.309889       -0.792322
 H          -8.810719      -22.628857       -2.013496
 C          -7.795363      -22.990641       -1.856353
 C          -7.530139      -24.193592       -2.768973
 C          -6.836365      -21.854076       -2.189160
 C          -7.696212      -23.841318       -4.227852
 C          -6.989441      -21.479193       -3.708564
 C          -6.755442      -22.726051       -4.605521
 H          -8.181554      -25.095070       -2.566038
 H          -6.587560      -24.615208       -2.585443
 H          -7.065278      -21.016659       -1.510242
 H          -5.834258      -22.239227       -2.002959
 H          -8.759715      -23.649910       -4.478193
 H          -7.471049      -24.674463       -4.951556
 H          -6.221298      -20.727591       -3.947114
 H          -7.986815      -21.053860       -4.011164
 H          -7.009073      -22.418596       -5.612942
 H          -5.721027      -23.117317       -4.495643
