20
 generated by VMD
 C         -56.333721     -149.857620      -46.541843
 N         -56.833237     -150.579254      -45.745735
 H         -53.299725     -147.846649      -47.682068
 H         -55.781391     -149.347290      -47.343857
 C         -53.624771     -147.373520      -48.595501
 C         -52.971237     -147.729218      -49.831772
 C         -54.644588     -146.270279      -48.554546
 C         -53.942753     -147.630692      -51.106670
 C         -55.253979     -145.927261      -49.883366
 C         -54.491379     -146.178299      -51.158756
 H         -52.632298     -148.702255      -49.822384
 H         -52.022343     -147.073639      -50.073956
 H         -55.485695     -146.549591      -47.915951
 H         -54.212524     -145.413223      -47.957829
 H         -54.679688     -148.431519      -51.066917
 H         -53.287384     -147.832123      -51.939552
 H         -55.493866     -144.810837      -49.780224
 H         -56.149387     -146.515198      -50.020870
 H         -55.152779     -145.955276      -52.014954
 H         -53.566776     -145.546280      -51.181934
