20
 generated by VMD
 C         -19.848318      -57.462887      -16.839783
 N         -19.213408      -57.920341      -17.735306
 H         -22.725557      -59.532906      -16.984863
 H         -20.561283      -57.108231      -16.223372
 C         -22.692947      -60.479080      -16.480318
 C         -23.927200      -61.191139      -16.367319
 C         -21.353682      -60.873180      -15.856829
 C         -23.684418      -62.647488      -16.002968
 C         -21.413591      -62.237572      -15.071885
 C         -22.823702      -62.788292      -14.733764
 H         -24.612497      -61.067833      -17.279909
 H         -24.372503      -60.738449      -15.453904
 H         -20.706583      -60.926281      -16.741570
 H         -20.834671      -60.120235      -15.232253
 H         -23.290665      -63.244083      -16.866728
 H         -24.637859      -63.128078      -15.758732
 H         -20.765274      -62.206562      -14.170641
 H         -21.015465      -62.977818      -15.836500
 H         -22.560614      -63.830692      -14.574798
 H         -23.265154      -62.340813      -13.834188
