20
 generated by VMD
 C         -69.185310     -180.851852      -62.489330
 N         -70.116508     -180.214951      -62.152950
 H         -66.904945     -181.251450      -59.726997
 H         -68.313400     -181.377899      -62.768642
 C         -66.479904     -180.261322      -60.091522
 C         -65.041718     -180.296173      -60.682991
 C         -67.026459     -178.998611      -59.551441
 C         -64.698166     -179.049545      -61.496021
 C         -66.576279     -177.802673      -60.437950
 C         -65.021034     -177.814499      -60.705746
 H         -65.009026     -181.153442      -61.442154
 H         -64.274582     -180.678848      -59.869766
 H         -68.134789     -179.078354      -59.433048
 H         -66.652649     -178.728485      -58.615902
 H         -65.385574     -178.986679      -62.430603
 H         -63.605644     -179.026749      -61.770027
 H         -66.942177     -176.855270      -60.024643
 H         -67.132164     -177.799698      -61.398018
 H         -64.709267     -176.816635      -60.854965
 H         -64.856125     -177.944489      -59.588219
