20
 generated by VMD
 C         -60.826897     -153.300491      -52.364029
 N         -60.765858     -153.014908      -51.201401
 H         -57.353153     -154.068512      -50.588234
 H         -60.836369     -153.450607      -53.461926
 C         -56.515091     -153.381973      -50.539459
 C         -55.541561     -153.640686      -49.435738
 C         -56.538601     -152.115494      -51.347923
 C         -54.175053     -153.195297      -49.897873
 C         -55.146389     -151.595215      -51.630775
 C         -54.115936     -151.741837      -50.562618
 H         -55.672485     -154.698410      -49.238495
 H         -55.690559     -153.060822      -48.488747
 H         -57.116093     -152.147125      -52.305473
 H         -57.016975     -151.370300      -50.738964
 H         -53.906212     -153.865280      -50.701256
 H         -53.532410     -153.214737      -48.934906
 H         -55.285282     -150.466553      -51.916618
 H         -54.619980     -151.932983      -52.590984
 H         -53.052433     -151.822784      -51.036316
 H         -54.213997     -151.073196      -49.746220
