20
 generated by VMD
 C         -72.513428     -198.949020      -65.589050
 N         -72.944031     -199.879456      -65.028290
 H         -71.033104     -195.839142      -67.595413
 H         -72.112465     -198.161514      -66.274002
 C         -72.042366     -195.683090      -67.899651
 C         -72.870895     -194.697723      -67.206886
 C         -72.510071     -196.520157      -69.037956
 C         -74.302505     -194.574173      -67.738579
 C         -73.984833     -196.961731      -68.895744
 C         -74.819374     -195.951828      -68.065536
 H         -72.400375     -193.710678      -67.286110
 H         -72.813583     -195.071930      -66.230988
 H         -72.386101     -195.834351      -69.933830
 H         -71.791412     -197.373596      -69.299507
 H         -74.337784     -194.017410      -68.725876
 H         -74.962830     -194.148483      -66.979866
 H         -74.059982     -197.864471      -68.291100
 H         -74.363411     -197.111908      -69.926308
 H         -75.896240     -195.955780      -68.457741
 H         -74.776352     -196.545547      -67.061493
