20
 generated by VMD
 C         -40.538136      -99.881630      -29.351934
 N         -39.877285     -100.159454      -28.410107
 H         -37.485477      -98.673302      -30.488504
 H         -40.948219      -99.557228      -30.243155
 C         -36.451336      -98.931160      -30.753183
 C         -35.805744      -99.273972      -32.203678
 C         -35.408379      -98.947113      -29.723270
 C         -34.780170      -98.137924      -32.450405
 C         -34.269287      -97.839592      -29.965984
 C         -33.677670      -98.170784      -31.328194
 H         -36.484455      -99.333290      -33.023796
 H         -35.382851     -100.299454      -32.010231
 H         -35.892845      -98.697975      -28.822001
 H         -34.927647      -99.952461      -29.553717
 H         -35.439980      -97.207405      -32.412823
 H         -34.406235      -98.106819      -33.484505
 H         -33.438370      -97.974594      -29.299774
 H         -34.848656      -96.845390      -29.976236
 H         -32.977997      -97.327957      -31.687775
 H         -33.112667      -99.074478      -31.274355
