20
 generated by VMD
 C         -20.461697      -61.506607      -17.066982
 N         -19.403324      -61.120251      -17.179964
 H         -21.693157      -64.897514      -16.722336
 H         -21.479328      -61.771164      -17.147221
 C         -22.749546      -64.955078      -17.092625
 C         -23.052402      -64.249382      -18.376484
 C         -23.775352      -65.162689      -15.988505
 C         -24.484493      -64.600761      -18.806776
 C         -25.184139      -65.458832      -16.506271
 C         -25.483284      -64.551460      -17.697657
 H         -22.292673      -64.561386      -19.148268
 H         -22.859924      -63.071400      -18.297356
 H         -23.307943      -66.003777      -15.454702
 H         -23.830519      -64.276352      -15.197660
 H         -24.431143      -65.626938      -19.288389
 H         -24.697001      -63.901527      -19.598707
 H         -25.879393      -65.061897      -15.755148
 H         -25.262260      -66.529045      -16.773306
 H         -26.479826      -64.708023      -18.069710
 H         -25.352600      -63.558102      -17.195578
