20
 generated by VMD
 C         -69.884018     -184.580872      -66.351921
 N         -69.005165     -184.347427      -67.046143
 H         -69.664230     -183.482529      -63.434387
 H         -70.625511     -184.870224      -65.696808
 C         -69.089088     -183.558914      -62.499146
 C         -69.342743     -184.615692      -61.462746
 C         -68.165924     -182.469940      -62.027008
 C         -68.127411     -184.987350      -60.546520
 C         -66.878403     -182.932281      -61.403439
 C         -67.208801     -183.845108      -60.159378
 H         -69.838966     -185.428650      -61.963192
 H         -70.168373     -184.185928      -60.845963
 H         -67.981987     -181.812561      -62.968807
 H         -68.645477     -181.809509      -61.315582
 H         -67.608589     -185.801849      -61.049294
 H         -68.569519     -185.529709      -59.707600
 H         -66.140968     -182.142349      -61.129444
 H         -66.270241     -183.546738      -62.081680
 H         -66.201988     -184.267532      -59.796692
 H         -67.626625     -183.120316      -59.340260
