20
 generated by VMD
 C         -51.446030     -129.760056      -45.190632
 N         -51.657337     -130.051910      -46.337135
 H         -48.452206     -130.344284      -43.435169
 H         -50.957630     -129.403778      -44.305840
 C         -47.929565     -130.461594      -42.563911
 C         -48.079063     -131.737610      -41.923897
 C         -47.578922     -129.230789      -41.704346
 C         -46.820038     -132.083359      -41.147770
 C         -46.284184     -129.544983      -40.940876
 C         -46.417900     -130.892197      -40.160641
 H         -48.293720     -132.333298      -42.759689
 H         -49.090336     -131.724182      -41.336124
 H         -47.479122     -128.342590      -42.463322
 H         -48.385525     -129.010727      -41.018009
 H         -45.952106     -132.390182      -41.729305
 H         -46.875225     -132.981216      -40.479351
 H         -46.127796     -128.645950      -40.379204
 H         -45.483509     -129.591492      -41.741859
 H         -45.411560     -131.101685      -39.772060
 H         -47.140240     -130.882523      -39.318211
