20
 generated by VMD
 C         -69.821648     -183.164017      -65.827789
 N         -70.941856     -182.823883      -65.784828
 H         -67.670120     -183.545517      -63.134434
 H         -68.816849     -183.463898      -65.864540
 C         -67.516785     -183.102875      -62.140770
 C         -67.800552     -183.757294      -60.897449
 C         -67.308731     -181.642044      -62.196392
 C         -66.877853     -183.275131      -59.807735
 C         -66.532188     -181.048676      -60.992783
 C         -66.916504     -181.781021      -59.702854
 H         -67.545364     -184.793076      -61.077374
 H         -68.735260     -183.790924      -60.558678
 H         -66.829567     -181.481567      -63.189629
 H         -68.192696     -181.017410      -62.287788
 H         -65.703293     -183.393295      -60.037407
 H         -67.113152     -183.844360      -58.876465
 H         -66.793037     -180.018204      -61.046856
 H         -65.443954     -181.147324      -61.055218
 H         -66.335648     -181.370987      -58.846558
 H         -67.974960     -181.432343      -59.458321
