20
 generated by VMD
 C         -76.995621     -203.500000      -66.803947
 N         -77.750000     -204.098877      -66.187759
 H         -75.296867     -200.710144      -68.353783
 H         -76.144814     -202.854141      -67.144409
 C         -74.761124     -199.969406      -68.920296
 C         -74.854980     -198.552170      -68.673820
 C         -73.735924     -200.661072      -69.774940
 C         -73.449562     -197.912262      -69.019440
 C         -72.900002     -199.798920      -70.733284
 C         -73.023041     -198.267426      -70.425133
 H         -75.234138     -198.126007      -67.634666
 H         -75.567253     -198.215927      -69.459763
 H         -73.099068     -201.409286      -69.287056
 H         -74.256737     -201.370392      -70.446167
 H         -72.678001     -198.285339      -68.347984
 H         -73.549324     -196.794357      -68.954437
 H         -73.144791     -199.969025      -71.826759
 H         -71.794380     -200.181763      -70.650536
 H         -72.104256     -197.644760      -70.534546
 H         -73.743988     -197.836472      -71.021194
