20
 generated by VMD
 C         -67.391563     -192.246841      -67.240990
 N         -68.205536     -192.785858      -66.657181
 H         -69.790741     -190.080154      -65.212357
 H         -66.497818     -191.799286      -67.759262
 C         -70.886490     -190.170105      -65.090729
 C         -71.721741     -190.789032      -66.160439
 C         -71.606438     -189.497452      -63.985516
 C         -72.782295     -191.772812      -65.626839
 C         -73.044411     -189.884247      -63.881344
 C         -73.367134     -191.345184      -64.190872
 H         -71.041321     -191.424103      -66.876671
 H         -72.230186     -189.987274      -66.724831
 H         -71.059059     -189.927811      -63.029598
 H         -71.484230     -188.426544      -64.076920
 H         -72.307198     -192.808823      -65.585732
 H         -73.548409     -191.967697      -66.398010
 H         -73.572289     -189.256348      -64.557442
 H         -73.373558     -189.508408      -62.855972
 H         -72.812645     -191.863861      -63.378811
 H         -74.359230     -191.584854      -64.129974
