20
 generated by VMD
 C         -12.543186      -30.210323       -7.859618
 N         -13.579336      -29.861584       -7.619697
 H         -11.418092      -30.238903       -4.983215
 H         -10.446775      -30.546280       -3.685367
 C         -10.830472      -31.072796       -4.570212
 C          -9.693862      -31.583143       -5.405798
 C         -11.733809      -32.192482       -4.072792
 C          -8.873573      -32.734711       -4.736087
 C         -10.920950      -33.345505       -3.507380
 C          -9.883949      -33.847206       -4.449076
 H          -9.115815      -30.724588       -5.576422
 H         -10.078756      -32.001083       -6.369545
 H         -12.484137      -31.816303       -3.367003
 H         -12.341576      -32.564491       -4.923610
 H          -8.489335      -32.288605       -3.770928
 H          -7.985260      -33.091625       -5.326047
 H         -11.662395      -34.180008       -3.283769
 H         -10.376986      -33.129456       -2.625461
 H          -9.393174      -34.767838       -4.013603
 H         -10.323782      -34.222660       -5.381586
