20
 generated by VMD
 C         -13.026138      -30.208637       -8.347551
 N         -13.863712      -30.414352       -9.051730
 H         -10.949410      -31.013041       -5.216549
 H         -10.931128      -31.493061       -3.486235
 C         -10.831650      -31.924633       -4.560871
 C          -9.386783      -32.523048       -4.799536
 C         -11.914634      -32.958710       -4.904439
 C          -9.288259      -33.903320       -4.167837
 C         -11.796102      -34.275398       -4.257663
 C         -10.406794      -34.848984       -4.510294
 H          -8.495046      -31.818085       -4.524097
 H          -9.215726      -32.601963       -5.877170
 H         -12.867829      -32.477322       -4.720628
 H         -11.926560      -32.990978       -5.992075
 H          -9.080452      -33.924191       -3.132093
 H          -8.357421      -34.323631       -4.526504
 H         -12.546300      -34.920971       -4.638257
 H         -12.017161      -34.300045       -3.164923
 H         -10.304976      -35.739113       -3.905460
 H         -10.244133      -35.217178       -5.542603
