20
 generated by VMD
 C         -40.276711      -99.699051      -29.026669
 N         -39.507549     -100.097855      -28.241663
 H         -37.388050      -99.036827      -30.327173
 H         -40.909779      -99.160034      -29.673038
 C         -36.486435      -98.573151      -30.694454
 C         -35.738155      -98.990227      -32.108700
 C         -35.458027      -98.555161      -29.599335
 C         -34.636974      -97.976830      -32.525665
 C         -34.322231      -97.550591      -29.939394
 C         -33.681274      -97.910973      -31.339287
 H         -36.590637      -99.024239      -32.816563
 H         -35.326797     -100.001663      -32.026501
 H         -35.934261      -98.234947      -28.634232
 H         -35.061432      -99.594429      -29.508995
 H         -34.956432      -96.949623      -32.834969
 H         -34.066986      -98.513191      -33.350986
 H         -33.616665      -97.583969      -29.104099
 H         -34.559406      -96.512535      -30.146969
 H         -32.874367      -97.234016      -31.549551
 H         -33.307602      -98.999626      -31.291513
