20
 generated by VMD
 C         -61.430668     -155.841278      -54.830711
 N         -60.883247     -155.640076      -53.789082
 H         -58.944199     -155.268875      -51.820744
 H         -61.921215     -155.999847      -55.820312
 C         -57.902233     -155.227478      -51.515549
 C         -57.476097     -154.439438      -50.372868
 C         -56.949429     -155.725235      -52.494278
 C         -56.276409     -155.136322      -49.693577
 C         -55.690704     -156.282837      -51.886509
 C         -55.229660     -155.389114      -50.713551
 H         -58.188244     -154.294205      -49.585018
 H         -57.176075     -153.440598      -50.868328
 H         -57.279652     -156.512283      -53.107658
 H         -56.724171     -154.796982      -53.083729
 H         -56.515919     -156.101974      -49.205631
 H         -55.883377     -154.452667      -49.066959
 H         -54.901897     -156.443054      -52.543255
 H         -56.048729     -157.299789      -51.543365
 H         -54.506905     -156.016266      -50.290745
 H         -54.631718     -154.483398      -51.015881
