20
 generated by VMD
 C         -49.261044     -132.998535      -46.989693
 N         -48.316837     -133.085419      -47.701729
 H         -48.577988     -134.259338      -44.464520
 H         -50.131943     -133.319641      -46.404072
 C         -49.382374     -134.863007      -43.978970
 C         -49.661015     -136.256607      -44.371414
 C         -50.411911     -134.125107      -43.045147
 C         -50.226158     -137.179291      -43.174686
 C         -50.951233     -135.051834      -41.929420
 C         -51.368382     -136.411331      -42.472111
 H         -48.769604     -136.746140      -44.731564
 H         -50.438213     -136.234436      -45.237232
 H         -49.892921     -133.330475      -42.618866
 H         -51.268909     -133.735519      -43.625717
 H         -49.444393     -137.370407      -42.417408
 H         -50.454769     -138.099564      -43.649734
 H         -51.889362     -134.655991      -41.391075
 H         -50.137978     -135.004486      -41.162415
 H         -51.563786     -137.013916      -41.651993
 H         -52.257778     -136.388504      -43.167812
