20
 generated by VMD
 C          -9.581427      -25.045141        0.660158
 N         -10.568558      -25.492970        0.949941
 H          -6.320931      -23.293926       -0.745226
 H          -7.813713      -22.670174       -1.296959
 C          -6.888723      -23.222313       -1.671033
 C          -7.183778      -24.590815       -2.307914
 C          -6.361740      -22.191051       -2.665324
 C          -8.139609      -24.362106       -3.506830
 C          -7.294445      -22.088539       -3.871696
 C          -7.534567      -23.438244       -4.511443
 H          -7.562680      -25.318119       -1.668447
 H          -6.246391      -25.015705       -2.669070
 H          -6.234375      -21.240778       -2.122768
 H          -5.406789      -22.562895       -3.008570
 H          -9.125144      -23.977985       -3.102181
 H          -8.361793      -25.271292       -4.041572
 H          -6.856991      -21.372583       -4.610712
 H          -8.264090      -21.688967       -3.542782
 H          -8.286637      -23.313465       -5.325545
 H          -6.578736      -23.809950       -4.839657
