20
 generated by VMD
 C         -41.086494     -102.462677      -35.095974
 N         -41.552273     -103.088242      -35.964962
 H         -39.714001     -104.398552      -32.711117
 H         -40.848495     -101.907730      -34.228622
 C         -38.784431     -104.792969      -32.490948
 C         -37.447811     -104.390846      -32.925758
 C         -38.784332     -106.199455      -31.866514
 C         -36.380424     -104.365097      -31.780720
 C         -37.780685     -106.158813      -30.751036
 C         -36.393547     -105.729866      -31.074717
 H         -37.344193     -103.435104      -33.409882
 H         -37.172821     -105.104874      -33.652061
 H         -39.652248     -106.559799      -31.422415
 H         -38.489185     -106.900620      -32.665539
 H         -36.544201     -103.552055      -31.108278
 H         -35.406994     -104.066826      -32.141941
 H         -37.595818     -107.170738      -30.280222
 H         -38.274940     -105.502136      -30.028103
 H         -35.762928     -105.665482      -30.130283
 H         -35.917610     -106.415833      -31.707754
