20
 generated by VMD
 C         -59.196701     -151.979919      -49.146004
 N         -58.854794     -152.235565      -50.196110
 H         -56.331779     -150.819092      -48.329720
 H         -59.425793     -151.656647      -48.118870
 C         -55.706711     -150.370956      -49.096451
 C         -54.747932     -151.361038      -49.740887
 C         -55.511845     -148.848953      -49.133793
 C         -54.157829     -150.912521      -51.083984
 C         -54.802853     -148.536972      -50.518829
 C         -53.648331     -149.465698      -51.073753
 H         -55.407387     -152.219025      -49.897804
 H         -54.003494     -151.474228      -48.948166
 H         -56.361229     -148.156555      -49.079098
 H         -54.807762     -148.493683      -48.393066
 H         -54.982517     -150.999512      -51.790447
 H         -53.434555     -151.660873      -51.484077
 H         -54.356026     -147.452393      -50.529549
 H         -55.536545     -148.399170      -51.295444
 H         -53.256969     -149.071915      -52.097214
 H         -52.819622     -149.427628      -50.404396
