20
 generated by VMD
 C         -50.480221     -129.301956      -43.553902
 N         -50.835289     -129.619705      -44.616619
 H         -48.962109     -127.994942      -40.528824
 H         -49.933014     -128.926727      -42.709648
 C         -47.881733     -128.113541      -40.567146
 C         -47.282249     -129.522827      -40.313339
 C         -46.889515     -126.971107      -40.652958
 C         -46.252663     -129.785141      -41.450314
 C         -45.898327     -127.339584      -41.711452
 C         -45.279530     -128.681107      -41.495979
 H         -48.079491     -130.378067      -40.359722
 H         -46.839169     -129.445068      -39.376904
 H         -47.445522     -126.092644      -40.912174
 H         -46.518585     -126.854355      -39.605289
 H         -46.894970     -129.834747      -42.349117
 H         -45.722252     -130.590759      -41.057896
 H         -44.997234     -126.650673      -41.743114
 H         -46.422787     -127.262253      -42.742249
 H         -44.450813     -128.764908      -42.211281
 H         -44.642056     -128.660660      -40.558865
