20
 generated by VMD
 C         -50.594746     -129.131195      -44.188274
 N         -50.938164     -130.222290      -44.386974
 H         -49.003269     -127.969643      -41.362289
 H         -50.416504     -128.109299      -43.902020
 C         -48.087341     -128.425873      -41.109486
 C         -47.794247     -129.941498      -41.055378
 C         -47.015610     -127.371658      -40.841759
 C         -46.404747     -130.267105      -41.553925
 C         -45.655167     -127.813667      -41.452751
 C         -45.406460     -129.243118      -40.976711
 H         -48.557167     -130.442810      -41.669392
 H         -47.994003     -130.219055      -39.989380
 H         -47.389496     -126.341682      -41.056152
 H         -47.044609     -127.390167      -39.722286
 H         -46.380085     -130.421906      -42.602562
 H         -46.008556     -131.235138      -41.223415
 H         -44.975124     -127.119156      -40.998444
 H         -45.803764     -127.545166      -42.501305
 H         -44.374035     -129.451706      -41.286949
 H         -45.579754     -129.341522      -39.833160
