20
 generated by VMD
 C         -67.753578     -185.847107      -67.115570
 N         -68.710716     -185.646866      -67.773743
 H         -68.424553     -188.347168      -64.394157
 H         -66.918991     -186.038284      -66.427040
 C         -69.252151     -187.890366      -63.777954
 C         -68.999710     -186.571396      -63.094547
 C         -70.706367     -188.431442      -63.748676
 C         -69.469711     -186.618576      -61.623322
 C         -71.233490     -188.264282      -62.335331
 C         -70.838989     -187.097839      -61.472469
 H         -69.435287     -185.770401      -63.762642
 H         -67.906975     -186.356735      -63.037163
 H         -71.299286     -187.976852      -64.554718
 H         -70.812042     -189.459030      -64.121696
 H         -69.317078     -185.582062      -61.230675
 H         -68.891205     -187.342697      -61.074203
 H         -71.104591     -189.258713      -61.726555
 H         -72.394165     -188.215088      -62.385090
 H         -71.610054     -186.450943      -61.685802
 H         -71.026344     -187.183563      -60.416870
