20
 generated by VMD
 C         -62.684387     -173.712357      -55.501560
 N         -63.578312     -174.168167      -54.894943
 H         -62.068050     -172.060135      -58.245853
 H         -61.893986     -173.177414      -56.006859
 C         -62.909538     -171.351685      -58.351028
 C         -62.749584     -170.053360      -57.731010
 C         -63.972904     -171.886948      -59.278858
 C         -63.715855     -168.945480      -58.300873
 C         -64.755196     -170.716202      -59.949512
 C         -64.998985     -169.679016      -58.827835
 H         -61.665863     -169.596710      -57.891930
 H         -62.900341     -170.139908      -56.689003
 H         -63.613426     -172.478821      -60.131889
 H         -64.675270     -172.641663      -58.787659
 H         -63.243786     -168.512039      -59.151077
 H         -63.879467     -168.169128      -57.527599
 H         -65.716583     -171.048813      -60.360455
 H         -64.189980     -170.249496      -60.749065
 H         -65.662697     -168.888428      -59.203159
 H         -65.577019     -170.232986      -57.972576
