20
 generated by VMD
 C          -9.529845      -25.019026        0.655452
 N         -10.473641      -25.477737        1.065145
 H          -6.220721      -23.441591       -0.882658
 H          -7.745510      -22.673801       -1.070485
 C          -6.944486      -23.157335       -1.614080
 C          -7.240644      -24.473429       -2.319123
 C          -6.338699      -22.133701       -2.627664
 C          -8.161506      -24.370222       -3.549298
 C          -7.248416      -22.026024       -3.870337
 C          -7.502769      -23.428104       -4.569520
 H          -7.673643      -25.104574       -1.462541
 H          -6.370884      -25.075493       -2.524945
 H          -6.360751      -21.134048       -2.123293
 H          -5.299407      -22.391161       -2.798495
 H          -9.199991      -24.075016       -3.310108
 H          -8.338214      -25.375910       -3.958565
 H          -6.794740      -21.394249       -4.622722
 H          -8.183159      -21.563869       -3.574978
 H          -8.235552      -23.258997       -5.423129
 H          -6.502728      -23.789724       -4.914302
