20
 generated by VMD
 C          -7.022646      -23.048773        2.472131
 N          -6.050145      -22.699821        2.851625
 H          -6.252127      -20.771799       -0.130579
 H          -7.772827      -21.615629       -0.614111
 C          -6.877060      -21.043344       -1.015906
 C          -6.188385      -21.969381       -2.032531
 C          -7.245771      -19.623453       -1.654682
 C          -7.043238      -22.111805       -3.264848
 C          -8.138237      -19.816570       -2.927528
 C          -7.456728      -20.779310       -3.903561
 H          -6.021023      -22.928024       -1.621244
 H          -5.108775      -21.699869       -2.206055
 H          -7.801322      -19.093115       -0.869492
 H          -6.293904      -19.216862       -1.969392
 H          -7.969207      -22.646086       -2.977132
 H          -6.473349      -22.653147       -4.049987
 H          -8.284776      -18.821226       -3.459373
 H          -9.079507      -20.320862       -2.598029
 H          -8.175933      -20.994137       -4.726037
 H          -6.548304      -20.323755       -4.408931
