20
 generated by VMD
 C         -47.356499     -138.920654      -45.671909
 N         -46.857498     -138.562683      -46.646496
 H         -50.610416     -138.355835      -44.841301
 H         -47.734253     -139.528732      -44.873085
 C         -51.586922     -138.788452      -45.083992
 C         -51.806835     -139.112488      -46.543049
 C         -52.915142     -138.435822      -44.351845
 C         -52.966705     -140.165314      -46.782757
 C         -54.068649     -139.394882      -44.659775
 C         -54.293606     -139.686172      -46.137913
 H         -50.891640     -139.400391      -47.043919
 H         -52.048782     -138.081604      -46.944065
 H         -52.781345     -138.404373      -43.314491
 H         -53.148972     -137.488297      -44.709572
 H         -52.882988     -141.144592      -46.280384
 H         -53.076046     -140.424911      -47.905861
 H         -55.131374     -138.986221      -44.420361
 H         -53.958057     -140.251038      -44.052074
 H         -54.991871     -140.509064      -46.219765
 H         -54.478718     -138.766724      -46.566216
