20
 generated by VMD
 C         -59.945885     -156.823578      -56.251553
 N         -60.969273     -156.335739      -56.354359
 H         -59.654839     -157.670410      -53.349483
 H         -58.939793     -157.197784      -56.081200
 C         -58.873047     -157.980972      -52.697132
 C         -57.691982     -157.049133      -52.475262
 C         -58.789230     -159.406891      -52.499603
 C         -57.307495     -157.265579      -50.905987
 C         -58.420349     -159.551208      -51.058922
 C         -57.169502     -158.739777      -50.572277
 H         -58.002922     -155.988327      -52.493496
 H         -56.907398     -157.154800      -53.102940
 H         -59.740665     -159.788544      -52.800549
 H         -57.995705     -159.790176      -53.171894
 H         -58.057583     -156.768539      -50.339928
 H         -56.307819     -156.758713      -50.710392
 H         -58.283028     -160.603485      -50.846050
 H         -59.238014     -159.166595      -50.532528
 H         -56.870373     -158.935577      -49.605839
 H         -56.251244     -159.125793      -51.172844
