20
 generated by VMD
 C         -10.769893      -33.461147       -9.499430
 N         -10.802634      -32.605988       -8.750089
 H         -11.994045      -36.176395       -7.993127
 H         -12.272810      -35.378582       -6.500026
 C         -12.486077      -36.304649       -7.024824
 C         -11.800063      -37.532528       -6.434692
 C         -14.010627      -36.603275       -7.245739
 C         -12.530593      -38.044388       -5.165451
 C         -14.694095      -37.171532       -5.981226
 C         -13.940248      -38.451527       -5.492703
 H         -10.773193      -37.356400       -6.137460
 H         -11.715303      -38.378223       -7.163915
 H         -14.441694      -35.650661       -7.437957
 H         -14.091312      -37.244305       -8.160144
 H         -12.457271      -37.317772       -4.321205
 H         -11.880985      -38.939350       -4.792450
 H         -15.700425      -37.462536       -6.223987
 H         -14.685697      -36.423771       -5.184234
 H         -14.461910      -38.881569       -4.663419
 H         -13.929270      -39.120358       -6.367816
