20
 generated by VMD
 C         -13.449993      -30.784334       -8.309699
 N         -13.230723      -30.040785       -9.134737
 H         -11.118764      -31.845055       -6.133888
 H         -11.430081      -31.886015       -4.367960
 C         -11.119936      -32.524578       -5.275627
 C          -9.742547      -32.947594       -4.978292
 C         -12.136250      -33.629589       -5.409301
 C          -9.519164      -34.049229       -3.931618
 C         -11.919263      -34.706104       -4.376651
 C         -10.492665      -35.224148       -4.241230
 H          -9.142064      -32.120552       -4.697476
 H          -9.286455      -33.418785       -5.892427
 H         -13.161112      -33.274807       -5.438232
 H         -11.906321      -34.070553       -6.369301
 H          -9.749889      -33.607464       -2.976893
 H          -8.535962      -34.445786       -3.968702
 H         -12.526527      -35.566212       -4.621290
 H         -12.212598      -34.288097       -3.437737
 H         -10.411239      -36.032341       -3.500127
 H         -10.268270      -35.740200       -5.172430
