20
 generated by VMD
 C         -78.807220     -204.162811      -70.359917
 N         -79.873520     -204.665100      -70.537758
 H         -76.598877     -203.440231      -68.491142
 H         -77.799377     -203.685104      -70.453415
 C         -75.747406     -203.220444      -69.213852
 C         -75.784836     -201.900970      -69.923012
 C         -74.459244     -203.935120      -68.994217
 C         -74.538490     -201.550110      -70.763580
 C         -73.354797     -202.905548      -68.914185
 C         -73.298912     -202.319824      -70.358795
 H         -75.713364     -201.222565      -69.092560
 H         -76.805061     -201.788132      -70.370049
 H         -74.491180     -204.629822      -68.190666
 H         -74.334419     -204.664795      -69.801292
 H         -74.390030     -200.449066      -70.691452
 H         -74.737938     -201.706390      -71.841850
 H         -72.406097     -203.490189      -68.795639
 H         -73.425018     -202.328171      -67.957191
 H         -72.455956     -201.718521      -70.405075
 H         -72.986534     -203.125702      -71.011246
