20
 generated by VMD
 C         -74.783516     -201.687775      -66.116478
 N         -73.860489     -201.006348      -65.911179
 H         -76.042953     -199.057831      -68.240059
 H         -75.487091     -202.426422      -66.532906
 C         -75.214737     -198.659500      -68.739738
 C         -74.973663     -197.169876      -68.213135
 C         -74.533348     -199.055008      -70.020576
 C         -73.502121     -196.846268      -68.099144
 C         -73.172302     -198.324875      -70.178093
 C         -72.676704     -197.976349      -68.750290
 H         -75.491898     -197.079086      -67.278427
 H         -75.549713     -196.424118      -68.974159
 H         -74.393295     -200.117218      -70.208466
 H         -75.244064     -198.805359      -70.896118
 H         -73.419563     -196.571304      -67.068848
 H         -73.249191     -195.900894      -68.647629
 H         -73.320282     -197.336639      -70.750847
 H         -72.494377     -198.982239      -70.736160
 H         -72.734116     -198.783447      -67.949265
 H         -71.600876     -197.614746      -68.794083
