20
 generated by VMD
 C         -11.984740      -31.535084       -8.328110
 N         -12.134758      -30.644255       -7.656746
 H         -11.396250      -34.728138       -7.974625
 H         -12.704574      -34.044418       -6.942365
 C         -11.753459      -34.722652       -6.927059
 C         -10.713373      -34.026451       -6.024866
 C         -12.264394      -36.042992       -6.315939
 C         -11.250509      -33.881588       -4.558603
 C         -12.649879      -35.921463       -4.883220
 C         -11.623057      -35.258907       -4.000893
 H         -10.421780      -32.971680       -6.353814
 H          -9.758183      -34.555622       -6.078487
 H         -13.148576      -36.423328       -6.874042
 H         -11.483048      -36.793915       -6.476364
 H         -12.146483      -33.265820       -4.606959
 H         -10.669023      -33.265350       -3.839232
 H         -12.869037      -36.939068       -4.438898
 H         -13.544068      -35.385921       -4.793940
 H         -12.100309      -35.153358       -2.988880
 H         -10.781588      -35.927895       -3.928213
