20
 generated by VMD
 C         -19.354168      -50.012043       -9.318213
 N         -19.600840      -51.051788       -9.664407
 H         -16.810863      -47.811531       -9.917237
 H         -19.009296      -48.743641       -9.300020
 C         -16.670340      -47.930374      -10.987037
 C         -15.726049      -48.995754      -11.517138
 C         -17.248499      -47.142914      -12.096529
 C         -16.194416      -49.761684      -12.800998
 C         -17.963776      -48.128567      -13.032873
 C         -16.921408      -48.908440      -13.805724
 H         -15.400974      -49.732395      -10.771815
 H         -14.792009      -48.485279      -11.814723
 H         -17.988720      -46.389725      -11.788423
 H         -16.526066      -46.579033      -12.713812
 H         -16.822718      -50.590221      -12.508399
 H         -15.340570      -50.261551      -13.261394
 H         -18.497458      -47.511780      -13.746540
 H         -18.684090      -48.789120      -12.560993
 H         -17.358208      -49.674000      -14.473629
 H         -16.261980      -48.221210      -14.430445
