20
 generated by VMD
 C         -22.961485      -53.481228      -13.828382
 N         -23.715487      -52.871304      -14.542930
 H         -20.798784      -54.985714      -14.735804
 H         -22.450491      -54.319706      -13.310040
 C         -19.775307      -55.007908      -14.054996
 C         -19.154341      -53.688679      -13.798222
 C         -18.725002      -56.115772      -14.308388
 C         -17.961189      -53.783440      -12.837997
 C         -17.414042      -56.218121      -13.533305
 C         -16.863846      -54.807877      -13.271441
 H         -19.891016      -52.976864      -13.337986
 H         -18.943607      -53.119419      -14.744887
 H         -19.275146      -57.019646      -14.277585
 H         -18.412886      -55.965252      -15.369362
 H         -18.388668      -54.055294      -11.849611
 H         -17.383207      -52.866001      -12.705961
 H         -16.664938      -56.769608      -14.059978
 H         -17.587158      -56.741261      -12.540302
 H         -16.074558      -54.840023      -12.529245
 H         -16.418415      -54.422844      -14.171411
