20
 generated by VMD
 C          -1.209155       -9.794999        1.196057
 N          -1.862022       -9.807522        0.256757
 H          -3.033447      -12.233043        1.238403
 H          -3.851149      -11.980520        2.828663
 C          -3.755808      -12.685640        2.001411
 C          -3.083148      -14.002802        2.476126
 C          -5.088242      -12.966969        1.311578
 C          -3.946745      -14.887259        3.315223
 C          -6.018051      -13.847384        2.189139
 C          -5.259454      -15.189370        2.541857
 H          -2.167193      -13.809196        3.028931
 H          -2.751297      -14.590766        1.535185
 H          -5.512061      -12.038534        1.038146
 H          -4.906900      -13.402262        0.371646
 H          -4.261646      -14.399808        4.203994
 H          -3.581701      -15.834924        3.554940
 H          -6.946141      -14.043340        1.617529
 H          -6.298098      -13.297558        3.147877
 H          -5.879117      -15.789771        3.207251
 H          -5.032362      -15.750167        1.621962
