20
 generated by VMD
 C         -47.866478     -139.728287      -46.078972
 N         -46.802525     -139.367279      -45.949760
 H         -50.940971     -138.893280      -44.875973
 H         -48.917160     -139.885040      -46.202213
 C         -51.890121     -139.215759      -45.306641
 C         -51.924973     -139.401062      -46.793510
 C         -53.241207     -138.868286      -44.602859
 C         -53.059269     -140.395386      -47.174294
 C         -54.193478     -139.931656      -44.932621
 C         -54.337727     -140.094376      -46.502125
 H         -51.023899     -139.952576      -47.145210
 H         -52.076836     -138.404663      -47.173252
 H         -53.199165     -138.944229      -43.529972
 H         -53.506939     -137.866257      -44.917408
 H         -52.845173     -141.476227      -46.887417
 H         -53.218105     -140.359619      -48.242077
 H         -55.205894     -139.729874      -44.510593
 H         -53.721478     -140.756332      -44.435326
 H         -54.986065     -140.903198      -46.587723
 H         -55.053181     -139.368668      -46.887135
