20
 generated by VMD
 C         -23.199495      -53.542290      -14.496995
 N         -24.220921      -53.307869      -15.038293
 H         -20.669987      -55.644089      -14.750480
 H         -22.375383      -54.011520      -13.623462
 C         -19.658253      -55.414299      -14.571374
 C         -19.310440      -54.320953      -13.650342
 C         -18.529987      -56.376823      -14.989450
 C         -18.104628      -54.545956      -12.644427
 C         -17.925201      -56.900856      -13.671719
 C         -17.266983      -55.811264      -12.909152
 H         -20.145557      -54.193390      -12.957632
 H         -19.073986      -53.398285      -14.199311
 H         -18.942839      -57.258904      -15.522974
 H         -17.823746      -55.841244      -15.698894
 H         -18.573368      -54.494663      -11.669269
 H         -17.386736      -53.699951      -12.576259
 H         -17.072954      -57.589527      -13.899618
 H         -18.662703      -57.436707      -13.094788
 H         -16.825230      -56.175148      -11.989115
 H         -16.305790      -55.537109      -13.421804
