20
 generated by VMD
 C         -31.173481      -75.626282      -21.457487
 N         -32.344582      -75.400375      -21.511398
 H         -27.921513      -75.663643      -19.978813
 H         -30.022787      -75.892281      -21.512932
 C         -27.123104      -75.418938      -20.692070
 C         -26.611359      -76.594910      -21.539337
 C         -26.180410      -74.200294      -20.519764
 C         -25.800327      -76.067696      -22.851223
 C         -25.427336      -73.835083      -21.755991
 C         -24.711445      -74.935158      -22.480886
 H         -27.535780      -77.062675      -21.992517
 H         -25.964123      -77.097366      -20.868971
 H         -26.706516      -73.408974      -20.027796
 H         -25.477940      -74.623322      -19.671133
 H         -26.475887      -75.634552      -23.648233
 H         -25.298063      -76.993660      -23.278328
 H         -24.641989      -73.160461      -21.413546
 H         -26.194263      -73.368919      -22.391506
 H         -24.344482      -74.503593      -23.432102
 H         -23.769550      -75.090042      -22.008844
