20
 generated by VMD
 C         -22.124020      -52.996067      -12.592614
 N         -23.141369      -52.454124      -12.770231
 H         -20.354670      -53.852917      -14.001292
 H         -21.117159      -53.286938      -11.893118
 C         -19.328213      -53.767300      -13.586503
 C         -18.765606      -52.317265      -13.770629
 C         -18.390184      -54.929974      -13.494954
 C         -17.393681      -52.345486      -14.265664
 C         -17.243633      -54.377117      -12.682795
 C         -16.554537      -53.223244      -13.358975
 H         -18.819918      -51.736881      -12.868311
 H         -19.481623      -51.711384      -14.406844
 H         -18.955400      -55.754456      -12.969964
 H         -17.949709      -55.238091      -14.406033
 H         -16.893387      -51.371803      -14.342088
 H         -17.400269      -52.798550      -15.284939
 H         -16.447266      -55.153980      -12.426014
 H         -17.647264      -54.008923      -11.747943
 H         -16.040079      -52.640442      -12.604707
 H         -15.774253      -53.596581      -13.975138
