20
 generated by VMD
 C         -59.672302     -152.056503      -49.619804
 N         -58.697464     -152.383423      -50.189857
 H         -56.581409     -150.996353      -48.535744
 H         -60.549103     -151.649109      -49.184856
 C         -55.850655     -150.574112      -49.223053
 C         -54.814369     -151.580414      -49.697388
 C         -55.321461     -149.104462      -49.117859
 C         -54.209614     -151.116882      -51.016190
 C         -54.854126     -148.707840      -50.572754
 C         -53.758144     -149.664459      -51.093578
 H         -55.282520     -152.542313      -49.851696
 H         -54.004700     -151.612091      -48.874493
 H         -56.143051     -148.404816      -48.772217
 H         -54.475277     -148.952820      -48.445194
 H         -55.089226     -151.183044      -51.681057
 H         -53.518593     -151.860275      -51.372952
 H         -54.447586     -147.639816      -50.720467
 H         -55.623623     -148.668839      -51.333652
 H         -53.670509     -149.479614      -52.226482
 H         -52.823860     -149.433746      -50.673477
