20
 generated by VMD
 C         -59.977619     -153.278351      -51.522820
 N         -60.325176     -152.116150      -51.492493
 H         -57.108593     -153.736694      -49.582272
 H         -59.617298     -154.285919      -51.683861
 C         -56.379398     -153.048370      -50.003735
 C         -54.980919     -153.237274      -49.388748
 C         -56.754200     -151.748093      -50.677982
 C         -53.981552     -152.706741      -50.323868
 C         -55.655945     -151.048615      -51.460857
 C         -54.278156     -151.296387      -50.824028
 H         -54.830799     -154.301682      -49.104671
 H         -54.707554     -152.760986      -48.464405
 H         -57.592190     -151.856079      -51.394608
 H         -57.016811     -151.133072      -49.830013
 H         -53.965912     -153.332031      -51.204376
 H         -52.909462     -152.943436      -50.012241
 H         -55.783844     -149.854263      -51.424316
 H         -55.514828     -151.415833      -52.453884
 H         -53.326290     -150.936234      -51.391987
 H         -54.209679     -150.593979      -49.971214
