20
 generated by VMD
 C         -38.673428      -99.084038      -27.075993
 N         -37.710342      -99.066566      -26.430243
 H         -36.853661      -97.533806      -29.867914
 H         -39.577007      -99.252472      -27.762980
 C         -36.097698      -96.938339      -30.446606
 C         -35.414879      -97.573975      -31.642862
 C         -35.301659      -95.922096      -29.475630
 C         -34.517570      -96.517677      -32.228458
 C         -34.047215      -95.357002      -30.067326
 C         -33.456711      -96.172134      -31.220861
 H         -36.091824      -97.744110      -32.454636
 H         -34.810970      -98.481277      -31.336746
 H         -36.043179      -95.326019      -28.988537
 H         -34.883884      -96.468513      -28.594288
 H         -34.875961      -95.619537      -32.597557
 H         -33.988888      -96.849945      -33.139824
 H         -33.257797      -95.131058      -29.294468
 H         -34.369465      -94.409775      -30.399012
 H         -32.646099      -95.659355      -31.730303
 H         -32.894997      -97.149574      -30.879353
