20
 generated by VMD
 C         -67.623314     -191.758728      -67.224449
 N         -66.995567     -192.571014      -66.709854
 H         -70.502884     -189.236359      -66.201439
 H         -68.120285     -191.091583      -67.846741
 C         -71.197662     -189.759613      -65.496773
 C         -71.698761     -191.188202      -65.832993
 C         -71.410370     -189.273026      -64.091148
 C         -73.151146     -191.196594      -65.363838
 C         -72.781502     -189.573044      -63.493126
 C         -73.251396     -191.020279      -63.864357
 H         -71.142410     -191.873688      -65.226433
 H         -71.639992     -191.410721      -66.964272
 H         -70.621025     -189.604523      -63.446747
 H         -71.358871     -188.137314      -64.070038
 H         -73.549782     -192.138947      -65.571098
 H         -73.820251     -190.429123      -65.800041
 H         -73.557037     -189.013947      -63.983070
 H         -72.815414     -189.336533      -62.449673
 H         -72.711433     -191.796600      -63.436897
 H         -74.223351     -191.299500      -63.434299
