20
 generated by VMD
 C          -2.310881      -16.568798        2.564969
 N          -1.606996      -17.427380        2.440954
 H          -4.671812      -16.381907        0.427624
 H          -4.720390      -17.675432       -0.742872
 C          -5.387115      -17.130865       -0.089554
 C          -6.444122      -16.352312       -0.976559
 C          -6.143688      -18.085747        0.812662
 C          -7.165709      -17.350065       -1.920619
 C          -7.019167      -19.012796        0.017153
 C          -7.916426      -18.338707       -1.019122
 H          -5.966402      -15.563190       -1.532527
 H          -7.177749      -15.877867       -0.266884
 H          -5.490853      -18.664564        1.420592
 H          -6.785502      -17.523531        1.364797
 H          -6.439729      -17.886383       -2.592705
 H          -7.962048      -16.753523       -2.503034
 H          -7.714988      -19.446920        0.742984
 H          -6.466063      -19.785385       -0.511648
 H          -8.417458      -19.106087       -1.624134
 H          -8.703559      -17.836880       -0.464421
