20
 generated by VMD
 C         -59.407841     -158.424149      -57.440609
 N         -58.477470     -158.358215      -58.053013
 H         -60.079861     -158.847992      -53.938175
 H         -60.320805     -158.531189      -56.908768
 C         -59.785110     -159.640640      -53.288658
 C         -58.569069     -159.608734      -52.468521
 C         -60.680328     -160.837845      -53.432381
 C         -58.612476     -160.556259      -51.212208
 C         -60.727173     -161.543945      -52.112621
 C         -59.328812     -161.811417      -51.585667
 H         -58.472122     -158.532974      -52.124474
 H         -57.667225     -159.881577      -53.009460
 H         -61.617638     -160.556091      -53.840542
 H         -60.344093     -161.725754      -54.030197
 H         -59.247784     -160.155319      -50.373547
 H         -57.668579     -160.847504      -50.942894
 H         -61.325310     -162.488281      -52.170097
 H         -61.146915     -160.856491      -51.393631
 H         -59.589176     -162.298264      -50.641575
 H         -58.783005     -162.468185      -52.212292
