20
 generated by VMD
 C         -41.001968     -104.407898      -36.240345
 N         -41.979378     -104.988762      -36.395329
 H         -38.325771     -104.492691      -33.509300
 H         -40.224846     -103.713707      -35.944874
 C         -38.264950     -105.430107      -32.976265
 C         -37.013306     -105.630661      -32.241238
 C         -39.351059     -106.333611      -33.367493
 C         -37.281506     -106.657104      -31.032370
 C         -39.425289     -107.406128      -32.281651
 C         -38.097256     -107.836563      -31.723513
 H         -36.634781     -104.716805      -31.765291
 H         -36.348740     -106.118614      -32.904915
 H         -40.391026     -105.830215      -33.456017
 H         -39.068317     -106.609146      -34.352684
 H         -37.893490     -106.047279      -30.257608
 H         -36.277855     -106.984932      -30.603771
 H         -40.052597     -108.196671      -32.784725
 H         -40.122471     -107.216141      -31.506096
 H         -38.249973     -108.557289      -30.982126
 H         -37.552311     -108.410889      -32.551971
