20
 generated by VMD
 C         -33.547894      -96.507004      -25.324741
 N         -32.683884      -96.909637      -24.622379
 H         -34.668949      -93.533104      -27.463272
 H         -34.297245      -96.138008      -26.010733
 C         -34.770996      -93.367310      -28.510475
 C         -36.120983      -93.804543      -29.199772
 C         -33.467472      -93.203690      -29.275505
 C         -36.219509      -92.895935      -30.413580
 C         -33.760868      -92.454384      -30.533955
 C         -35.026440      -93.008621      -31.264917
 H         -36.872829      -93.407104      -28.437536
 H         -36.289837      -94.860107      -29.413080
 H         -32.710007      -92.588837      -28.693037
 H         -33.051338      -94.186981      -29.544453
 H         -36.458195      -91.807541      -30.406298
 H         -37.020393      -93.237831      -31.052645
 H         -32.906357      -92.239136      -31.279135
 H         -33.939091      -91.458130      -30.200968
 H         -35.047176      -92.305496      -32.051769
 H         -34.663387      -93.969139      -31.734390
