20
 generated by VMD
 C         -69.292381     -180.329956      -60.441193
 N         -69.309731     -181.470627      -60.405506
 H         -67.344688     -177.287445      -59.693951
 H         -69.153343     -179.242798      -60.545910
 C         -66.326591     -177.308685      -59.900787
 C         -65.991074     -177.335999      -61.344219
 C         -65.281059     -177.116974      -58.884254
 C         -64.926819     -176.269257      -61.704098
 C         -64.265907     -175.982117      -59.065475
 C         -63.715332     -176.167892      -60.676643
 H         -66.914558     -176.964432      -61.801853
 H         -65.786751     -178.337814      -61.616928
 H         -65.708954     -177.013229      -57.854446
 H         -64.622963     -177.977966      -58.823341
 H         -65.420509     -175.267502      -61.645763
 H         -64.455818     -176.417618      -62.764141
 H         -63.487545     -175.811615      -58.300568
 H         -64.819168     -175.008179      -59.080765
 H         -63.168163     -175.206924      -60.861706
 H         -62.983791     -176.967102      -60.583790
