20
 generated by VMD
 C         -62.597157     -174.390411      -54.857658
 N         -63.499413     -174.112274      -55.503464
 H         -62.479675     -172.577942      -58.214825
 H         -61.823486     -174.673813      -54.160465
 C         -63.267967     -171.838303      -58.378304
 C         -63.536140     -170.605988      -57.425034
 C         -64.262657     -172.058746      -59.636684
 C         -63.711311     -169.369949      -58.219887
 C         -64.616013     -170.800034      -60.358398
 C         -64.733330     -169.583466      -59.343468
 H         -62.608654     -170.560410      -56.691982
 H         -64.366669     -170.874298      -56.889076
 H         -63.859203     -172.781021      -60.306728
 H         -65.009094     -172.755051      -59.342037
 H         -62.758091     -169.136093      -58.761696
 H         -64.005821     -168.532227      -57.523090
 H         -65.547470     -170.886826      -60.913223
 H         -63.777924     -170.436829      -61.005478
 H         -64.723167     -168.676392      -59.998524
 H         -65.757927     -169.636398      -58.834625
