20
 generated by VMD
 C         -11.556206      -39.523380       -7.053317
 N         -10.889791      -39.786804       -6.223802
 H         -13.308205      -40.675972       -9.117086
 H         -14.739065      -39.857208       -9.251243
 C         -14.321961      -40.858452       -9.216136
 C         -14.860695      -41.687660       -8.052563
 C         -14.648842      -41.541225      -10.515473
 C         -16.367748      -41.937672       -8.261261
 C         -16.132227      -41.528770      -10.715113
 C         -16.755911      -42.400745       -9.638403
 H         -14.688923      -41.135967       -7.144760
 H         -14.264796      -42.614838       -8.022932
 H         -14.161556      -40.948826      -11.275769
 H         -14.285645      -42.642296      -10.503194
 H         -16.879831      -40.975056       -8.096725
 H         -16.702024      -42.678322       -7.546742
 H         -16.513277      -41.966488      -11.696727
 H         -16.562279      -40.594433      -10.668888
 H         -17.811632      -42.341915       -9.732874
 H         -16.476963      -43.421688       -9.844913
