20
 generated by VMD
 C         -13.726217      -42.873909       -5.970032
 N         -12.881580      -43.191872       -6.603796
 H         -14.961352      -45.111835       -8.996300
 H         -14.445230      -43.648914       -9.768741
 C         -15.231821      -44.411930       -9.714716
 C         -16.498690      -43.580555       -9.335756
 C         -15.320409      -45.135506      -11.045175
 C         -16.868267      -42.678005      -10.475780
 C         -15.814267      -44.250000      -12.253936
 C         -17.083603      -43.581619      -11.692655
 H         -16.324718      -42.938301       -8.429264
 H         -17.302706      -44.234921       -8.939957
 H         -14.371325      -45.602737      -11.268902
 H         -15.948720      -45.978825      -10.980803
 H         -16.059668      -41.921410      -10.644801
 H         -17.773066      -42.100891      -10.210644
 H         -15.972025      -44.867756      -13.133013
 H         -14.961076      -43.521763      -12.447083
 H         -17.510025      -43.048199      -12.518675
 H         -17.778698      -44.326855      -11.343569
