20
 generated by VMD
 C         -18.150309      -49.400326       -8.485205
 N         -19.154526      -49.863201       -8.522652
 H         -16.384073      -47.429340       -9.924630
 H         -17.147749      -48.881706      -10.531593
 C         -16.696711      -47.919518      -10.848002
 C         -15.425187      -48.183304      -11.709420
 C         -17.752432      -47.133480      -11.624816
 C         -15.682007      -48.683250      -13.122518
 C         -18.061594      -47.699398      -12.994533
 C         -16.824635      -47.957138      -13.796571
 H         -14.668929      -48.917030      -11.295287
 H         -14.831971      -47.281269      -11.689897
 H         -18.643883      -46.986816      -11.001943
 H         -17.412674      -46.063679      -11.718164
 H         -15.887753      -49.771454      -13.014890
 H         -14.765536      -48.737648      -13.739830
 H         -18.727579      -46.913826      -13.453102
 H         -18.636816      -48.578243      -12.930776
 H         -17.049471      -48.510231      -14.690303
 H         -16.482262      -46.956509      -14.073408
