20
 generated by VMD
 C         -50.426758     -129.315445      -43.624546
 N         -50.887478     -130.018921      -44.486580
 H         -49.113255     -127.921539      -41.048626
 H         -49.879070     -128.625046      -42.995293
 C         -48.090733     -128.313995      -41.103436
 C         -47.729122     -129.690353      -41.020252
 C         -47.065250     -127.286392      -40.925365
 C         -46.453457     -130.131714      -41.665470
 C         -45.621578     -127.681038      -41.327770
 C         -45.349945     -129.152573      -41.079365
 H         -48.468132     -130.342651      -41.603329
 H         -47.737476     -129.885712      -39.981171
 H         -47.363838     -126.407646      -41.494614
 H         -47.098148     -126.919891      -39.861141
 H         -46.549511     -129.856735      -42.791492
 H         -46.186619     -131.177826      -41.343895
 H         -44.998314     -127.057457      -40.674183
 H         -45.528503     -127.295822      -42.299786
 H         -44.331165     -129.313797      -41.396652
 H         -45.221832     -129.404861      -40.031685
