20
 generated by VMD
 C         -46.389381     -124.328423      -35.955826
 N         -46.899460     -125.303993      -35.530174
 H         -44.411606     -121.491531      -37.957306
 H         -45.792904     -123.488914      -36.100437
 C         -44.457130     -121.446159      -38.993481
 C         -43.294151     -121.555794      -39.821411
 C         -45.713425     -120.779816      -39.581757
 C         -43.469971     -121.732986      -41.297276
 C         -45.950928     -121.002647      -41.063934
 C         -44.627239     -120.902321      -41.891762
 H         -42.527004     -122.365654      -39.586636
 H         -42.814758     -120.609474      -39.673992
 H         -46.598934     -121.247078      -39.081112
 H         -45.731625     -119.722984      -39.226879
 H         -43.586483     -122.803062      -41.503960
 H         -42.484608     -121.669907      -41.816986
 H         -46.566299     -120.204079      -41.316837
 H         -46.380379     -121.934105      -41.401890
 H         -44.907383     -121.180435      -42.909672
 H         -44.345608     -119.810692      -41.980957
