20
 generated by VMD
 C         -20.496180      -64.202171      -16.511030
 N         -19.813204      -63.431942      -17.015663
 H         -23.675299      -63.180775      -17.373817
 H         -21.082645      -64.854713      -15.841282
 C         -23.945282      -64.186485      -17.704573
 C         -24.535297      -64.328697      -19.113436
 C         -24.213989      -65.310783      -16.683817
 C         -24.751900      -65.818161      -19.440725
 C         -24.793135      -66.680458      -17.159363
 C         -25.463854      -66.635284      -18.489868
 H         -23.817747      -63.929974      -19.812538
 H         -25.550293      -63.874332      -19.129898
 H         -23.396441      -65.434700      -16.119202
 H         -25.073465      -64.955582      -16.150421
 H         -23.794634      -66.306252      -19.626577
 H         -25.287643      -65.854530      -20.405411
 H         -25.402739      -67.172852      -16.414560
 H         -23.849825      -67.201782      -17.253593
 H         -25.643433      -67.609283      -18.928289
 H         -26.492075      -66.359680      -18.371241
