20
 generated by VMD
 C         -40.345264     -118.546356      -35.065002
 N         -39.442970     -117.849060      -35.023033
 H         -43.202133     -116.790497      -36.133160
 H         -41.005909     -119.428375      -35.027027
 C         -43.642872     -116.867531      -37.160564
 C         -42.849911     -117.162880      -38.425526
 C         -44.916508     -116.172325      -37.257130
 C         -43.772942     -117.931877      -39.373798
 C         -45.903603     -117.009956      -38.038582
 C         -45.203335     -117.231117      -39.480358
 H         -41.876923     -117.660210      -38.137520
 H         -42.516842     -116.151291      -38.753647
 H         -45.367867     -115.883667      -36.347118
 H         -44.801422     -115.206604      -37.743618
 H         -43.800922     -118.991211      -39.082355
 H         -43.421158     -117.882683      -40.383736
 H         -46.855171     -116.511864      -38.272133
 H         -45.875908     -117.935928      -37.496849
 H         -45.722389     -118.001312      -40.077202
 H         -45.098450     -116.349739      -39.999660
