20
 generated by VMD
 C         -10.396673      -25.308231       -0.786172
 N         -11.293880      -24.700945       -0.557650
 H          -6.555364      -25.387609       -0.981304
 H          -8.227311      -25.417809       -1.299863
 C          -7.269986      -25.131371       -1.755209
 C          -6.956667      -26.083399       -2.978666
 C          -6.980083      -23.706541       -2.028665
 C          -7.890192      -25.470179       -4.122625
 C          -7.871634      -23.161247       -3.147302
 C          -7.685915      -23.974047       -4.424158
 H          -7.290178      -27.086121       -2.709874
 H          -5.901602      -25.914999       -3.298435
 H          -7.249875      -23.109423       -1.116475
 H          -5.919593      -23.645876       -2.251201
 H          -8.997078      -25.608366       -3.877902
 H          -7.573348      -25.990364       -5.058339
 H          -7.699041      -22.125744       -3.391377
 H          -8.921161      -23.169487       -2.835979
 H          -8.464862      -23.643703       -5.141698
 H          -6.748436      -23.742626       -4.915807
