20
 generated by VMD
 C         -22.565905      -55.586670      -16.431032
 N         -23.115376      -54.531235      -16.428698
 H         -19.782587      -55.460064      -15.423691
 H         -21.707970      -56.455254      -16.568121
 C         -19.807171      -56.436203      -15.007509
 C         -20.645027      -56.645359      -13.720507
 C         -18.617683      -57.543850      -15.261264
 C         -21.007679      -58.166798      -13.429732
 C         -18.932222      -58.976151      -14.655103
 C         -19.746460      -59.055210      -13.360799
 H         -21.514591      -55.933640      -13.719137
 H         -20.023487      -56.276630      -12.837474
 H         -18.336494      -57.753269      -16.368649
 H         -17.635960      -57.209610      -14.940977
 H         -21.624086      -58.634319      -14.219420
 H         -21.594702      -58.206848      -12.519982
 H         -18.004999      -59.556694      -14.579186
 H         -19.547194      -59.418491      -15.402539
 H         -20.020092      -60.091747      -13.091134
 H         -19.109056      -58.729229      -12.549085
