20
 generated by VMD
 C         -58.981949     -159.329544      -57.467201
 N         -58.328163     -160.141052      -57.838428
 H         -58.904823     -161.052475      -54.919983
 H         -59.583282     -158.532501      -57.125984
 C         -59.413635     -161.628769      -54.150707
 C         -58.971317     -161.937119      -52.765408
 C         -60.803257     -162.183167      -54.429543
 C         -59.907398     -161.875671      -51.612003
 C         -61.769367     -161.844559      -53.270741
 C         -61.274487     -162.437149      -51.985302
 H         -58.157257     -161.195786      -52.563126
 H         -58.684994     -163.050797      -52.650211
 H         -61.108723     -161.753845      -55.321552
 H         -60.894802     -163.257935      -54.621334
 H         -60.081997     -160.765045      -51.226070
 H         -59.517918     -162.380066      -50.669891
 H         -62.814430     -162.178467      -53.576881
 H         -61.877674     -160.717148      -53.377148
 H         -61.921085     -162.281357      -51.168892
 H         -61.170418     -163.531586      -52.133018
