20
 generated by VMD
 C         -12.059078      -25.420786       -0.590267
 N         -12.803825      -25.810144        0.144120
 H          -8.791589      -26.930260       -2.051279
 H          -9.263559      -25.986259       -3.475346
 C          -8.421732      -26.252337       -2.825502
 C          -7.463847      -27.021877       -3.752909
 C          -7.852211      -24.850491       -2.402671
 C          -6.940310      -26.121758       -4.881447
 C          -7.234998      -24.013100       -3.503680
 C          -6.364450      -24.771511       -4.467196
 H          -8.022964      -27.835995       -4.184917
 H          -6.645977      -27.433863       -3.172747
 H          -8.580726      -24.280565       -1.849590
 H          -7.012173      -25.107998       -1.714449
 H          -7.814620      -25.951271       -5.510089
 H          -6.218528      -26.616480       -5.550226
 H          -6.750269      -23.105806       -3.081778
 H          -8.084344      -23.600197       -4.063990
 H          -6.079561      -24.150625       -5.320501
 H          -5.339648      -25.026941       -4.076250
