20
 generated by VMD
 C          -8.273591      -23.554085        2.155810
 N          -7.788854      -23.752098        3.153009
 H          -8.911962      -23.622667       -1.634613
 H          -9.276109      -22.432707       -3.008460
 C          -8.499286      -22.906557       -2.393041
 C          -7.724421      -23.801029       -3.317919
 C          -7.704447      -21.777016       -1.828530
 C          -7.048743      -23.036928       -4.434164
 C          -6.949140      -20.987957       -2.941812
 C          -6.211852      -21.946272       -3.894582
 H          -8.496973      -24.582573       -3.739359
 H          -6.929431      -24.306400       -2.775808
 H          -8.299373      -21.183607       -1.094892
 H          -6.967574      -22.222294       -1.164285
 H          -7.774689      -22.621407       -5.146101
 H          -6.466101      -23.747309       -5.036326
 H          -6.280073      -20.173489       -2.628336
 H          -7.696660      -20.443233       -3.522469
 H          -5.754551      -21.411961       -4.742505
 H          -5.329143      -22.276470       -3.341755
