20
 generated by VMD
 C         -53.069008     -146.825546      -44.888229
 N         -51.984409     -147.062210      -44.547352
 H         -54.503803     -146.699997      -47.903004
 H         -54.089939     -146.632690      -45.202152
 C         -54.236034     -145.707672      -48.125950
 C         -53.020206     -145.610992      -49.034248
 C         -55.000271     -144.419083      -47.849800
 C         -53.428143     -144.677841      -50.335281
 C         -55.319061     -143.505905      -49.022667
 C         -54.099525     -143.239212      -49.887638
 H         -52.814884     -146.581879      -49.366528
 H         -52.139481     -145.130173      -48.516491
 H         -55.889977     -144.597656      -47.316696
 H         -54.487041     -143.817963      -47.160923
 H         -54.216629     -145.118912      -50.951641
 H         -52.524845     -144.554794      -50.856117
 H         -55.824558     -142.713257      -48.615398
 H         -56.045452     -144.079391      -49.628922
 H         -54.289906     -142.541626      -50.647926
 H         -53.301037     -142.794647      -49.339455
