20
 generated by VMD
 C         -78.766273     -207.890915      -76.719879
 N         -78.637016     -207.973587      -75.541084
 H         -79.253670     -209.943359      -73.392914
 H         -78.836594     -207.813019      -77.855911
 C         -78.746323     -210.178146      -72.500328
 C         -77.417717     -209.544601      -72.275604
 C         -79.085831     -211.333145      -71.498421
 C         -77.151192     -209.159500      -70.809181
 C         -78.650185     -211.165665      -70.022255
 C         -77.286278     -210.415985      -70.055122
 H         -77.283867     -208.649994      -72.885338
 H         -76.647476     -210.335373      -72.520180
 H         -80.210823     -211.364914      -71.647141
 H         -78.720184     -212.317917      -71.832664
 H         -77.944199     -208.416077      -70.541901
 H         -76.146599     -208.771957      -70.532784
 H         -78.587257     -212.078354      -69.364594
 H         -79.396133     -210.542877      -69.520111
 H         -77.117172     -210.109573      -69.008698
 H         -76.587463     -211.209946      -70.262810
