20
 generated by VMD
 C         -41.174713     -119.326401      -34.718945
 N         -40.304539     -119.250168      -35.438583
 H         -43.495159     -117.670692      -36.415066
 H         -41.953468     -119.138474      -33.978542
 C         -43.939304     -117.652908      -37.361305
 C         -42.977993     -117.774223      -38.506187
 C         -45.222912     -116.970398      -37.566662
 C         -43.775600     -118.486099      -39.624405
 C         -45.910740     -117.589691      -38.807480
 C         -45.037952     -117.683990      -40.061005
 H         -42.105396     -118.364052      -38.020992
 H         -42.490803     -116.805458      -38.892838
 H         -45.890377     -117.250931      -36.825035
 H         -45.107834     -115.893600      -37.646748
 H         -44.205582     -119.478928      -39.239510
 H         -43.013443     -118.688271      -40.351151
 H         -46.645473     -116.911530      -39.056629
 H         -46.145454     -118.645370      -38.635094
 H         -45.580173     -118.220566      -40.793903
 H         -44.731449     -116.663223      -40.342506
