20
 generated by VMD
 C         -13.289946      -28.756521       -6.431462
 N         -13.155897      -28.793762       -7.537875
 H         -11.978547      -30.584303       -5.045060
 H         -10.574965      -29.731201       -4.576864
 C         -10.969398      -30.781975       -4.635517
 C         -10.086336      -31.531139       -5.623794
 C         -10.977525      -31.437340       -3.235336
 C          -8.723565      -31.849520       -5.152082
 C          -9.496766      -31.478535       -2.721107
 C          -8.522662      -32.150002       -3.670128
 H         -10.007683      -30.877075       -6.606326
 H         -10.697718      -32.372532       -5.868974
 H         -11.683986      -30.908815       -2.551446
 H         -11.339451      -32.505787       -3.312913
 H          -8.073914      -30.952023       -5.271725
 H          -8.269363      -32.606102       -5.853833
 H          -9.400214      -31.990786       -1.802160
 H          -9.119184      -30.420034       -2.590591
 H          -7.494289      -32.114208       -3.375234
 H          -8.709938      -33.227180       -3.529790
