20
 generated by VMD
 C         -26.900089      -71.883186      -17.528217
 N         -27.189678      -72.995796      -17.299606
 H         -24.441010      -69.779388      -18.892874
 H         -26.475859      -70.937035      -17.891691
 C         -24.943501      -70.383018      -19.645868
 C         -24.321007      -71.536644      -20.323370
 C         -25.817768      -69.431351      -20.341875
 C         -25.162003      -72.151161      -21.500769
 C         -26.558006      -70.122208      -21.379639
 C         -25.875046      -71.095528      -22.291058
 H         -24.213314      -72.250870      -19.537457
 H         -23.380245      -71.144569      -20.493799
 H         -26.429117      -68.952835      -19.564556
 H         -25.320173      -68.521515      -20.710541
 H         -25.919317      -72.893814      -21.119040
 H         -24.505077      -72.726700      -22.208740
 H         -26.909079      -69.400955      -22.051065
 H         -27.422112      -70.525368      -20.999348
 H         -26.483252      -71.675835      -22.994150
 H         -25.097122      -70.634377      -23.010878
