20
 generated by VMD
 C          -1.768660       -9.536386       -0.115708
 N          -2.502081       -8.902127        0.386844
 H          -2.241020      -10.836324        2.656304
 H          -2.156704      -11.906672        3.955680
 C          -2.793948      -11.708265        3.088700
 C          -2.635868      -12.884441        2.054420
 C          -4.235170      -11.309335        3.261303
 C          -3.359688      -14.091131        2.692482
 C          -5.036683      -12.544244        3.813870
 C          -4.837755      -13.856939        3.016118
 H          -1.628257      -13.151180        1.813192
 H          -3.070826      -12.648839        1.062948
 H          -4.269075      -10.535523        3.988709
 H          -4.602931      -10.985929        2.268020
 H          -2.908988      -14.274101        3.665743
 H          -3.211995      -15.055918        2.234856
 H          -6.109340      -12.258778        3.895111
 H          -4.684764      -12.731768        4.892873
 H          -5.300423      -14.620603        3.625958
 H          -5.424947      -13.788235        2.085518
