20
 generated by VMD
 C         -58.155323     -166.640106      -56.125561
 N         -58.095928     -167.381943      -55.218792
 H         -60.699356     -165.472733      -55.009480
 H         -58.201420     -165.938705      -56.983665
 C         -61.544220     -165.675156      -55.619968
 C         -61.804459     -166.893127      -56.467178
 C         -62.513668     -164.548615      -55.541698
 C         -63.358109     -167.242340      -56.414562
 C         -63.973446     -165.039871      -55.499508
 C         -64.215736     -166.053482      -56.592518
 H         -61.271961     -167.756287      -56.180771
 H         -61.587143     -166.703094      -57.599461
 H         -62.228992     -163.766296      -54.720985
 H         -62.430882     -164.050964      -56.501595
 H         -63.622963     -167.827255      -55.510052
 H         -63.578949     -167.879425      -57.322155
 H         -64.513626     -164.141327      -55.729729
 H         -64.245140     -165.435379      -54.489155
 H         -65.221054     -166.363083      -56.447128
 H         -64.226204     -165.514694      -57.510410
