20
 generated by VMD
 C         -61.737488     -154.551041      -53.956917
 N         -62.205040     -155.624390      -53.664013
 H         -58.136246     -154.877777      -52.251091
 H         -61.200317     -153.592743      -54.153206
 C         -57.195702     -154.783768      -51.619850
 C         -57.299381     -154.329636      -50.247166
 C         -55.936096     -154.674240      -52.349205
 C         -56.002129     -154.735641      -49.557518
 C         -54.637661     -155.065735      -51.625328
 C         -54.732704     -154.352585      -50.202770
 H         -58.057640     -154.942169      -49.614613
 H         -57.560947     -153.275787      -50.394997
 H         -55.888927     -155.228241      -53.300976
 H         -55.937004     -153.658661      -52.647030
 H         -56.137634     -155.767426      -49.309952
 H         -56.106663     -154.099274      -48.649502
 H         -53.666622     -154.815887      -52.195293
 H         -54.720234     -156.128326      -51.530426
 H         -54.001781     -154.899261      -49.558456
 H         -54.551281     -153.263474      -50.255165
