20
 generated by VMD
 C         -23.661379      -69.306854      -16.683969
 N         -23.969213      -69.911842      -15.747903
 H         -23.923470      -66.614799      -18.944738
 H         -23.249998      -68.775131      -17.440012
 C         -24.479788      -67.324608      -19.500355
 C         -23.936279      -68.165848      -20.563255
 C         -25.951065      -67.254730      -19.279324
 C         -24.543322      -69.487793      -20.778616
 C         -26.471262      -68.657356      -19.426386
 C         -26.049301      -69.399750      -20.798489
 H         -22.864012      -68.191383      -20.492146
 H         -24.126110      -67.427177      -21.500921
 H         -26.183239      -66.790802      -18.309256
 H         -26.354721      -66.666969      -19.995546
 H         -24.079481      -70.158630      -20.083057
 H         -24.178444      -69.785942      -21.812519
 H         -27.558334      -68.656876      -19.354893
 H         -26.198294      -69.301933      -18.591812
 H         -26.355206      -70.475044      -20.911154
 H         -26.379539      -68.732552      -21.615934
