20
 generated by VMD
 C         -65.941422     -177.769485      -56.913975
 N         -66.584557     -176.824585      -57.191921
 H         -64.535576     -175.764404      -58.851151
 H         -65.373505     -178.648819      -56.626762
 C         -64.489738     -174.760376      -59.234749
 C         -65.643555     -173.869476      -58.962032
 C         -63.447914     -174.398743      -60.259457
 C         -65.247459     -172.373901      -58.965790
 C         -63.077965     -172.956024      -60.373959
 C         -64.349907     -172.087402      -60.268715
 H         -66.150772     -174.147461      -57.932671
 H         -66.431465     -174.080811      -59.662712
 H         -62.590363     -175.077316      -60.308678
 H         -63.868332     -174.679047      -61.234287
 H         -64.633141     -172.241257      -58.005848
 H         -66.135406     -171.689728      -58.830418
 H         -62.565353     -172.624847      -61.218983
 H         -62.325207     -172.837494      -59.540958
 H         -63.989422     -171.031937      -60.162464
 H         -65.037483     -172.075211      -61.168465
