20
 generated by VMD
 C         -79.574745     -205.663040      -72.626083
 N         -80.216164     -206.575790      -72.469543
 H         -77.672821     -204.778564      -70.734215
 H         -79.015778     -204.715851      -72.857468
 C         -76.684189     -205.155731      -71.000221
 C         -75.518387     -204.268585      -71.328072
 C         -76.386330     -206.500153      -70.470352
 C         -74.715866     -204.043137      -70.042786
 C         -75.661835     -206.281265      -69.125694
 C         -74.375343     -205.512543      -69.479820
 H         -75.967896     -203.292664      -71.691254
 H         -74.939072     -204.712875      -72.118095
 H         -77.279655     -207.107651      -70.308617
 H         -75.618866     -206.989075      -70.993156
 H         -75.511086     -203.465302      -69.446831
 H         -73.828949     -203.344574      -70.179047
 H         -75.382645     -207.205948      -68.556961
 H         -76.336174     -205.787613      -68.543259
 H         -73.693550     -205.618851      -68.577553
 H         -73.784729     -205.984802      -70.257446
