20
 generated by VMD
 C         -40.166389     -101.075897      -32.066147
 N         -41.067589     -100.743385      -31.406202
 H         -37.911983     -103.769943      -32.254242
 H         -39.509502     -101.409210      -32.896210
 C         -37.369759     -102.779518      -32.003052
 C         -36.047585     -102.443687      -32.791203
 C         -37.377586     -102.351257      -30.530558
 C         -35.244579     -101.138832      -32.544334
 C         -36.502335     -101.102806      -30.208008
 C         -35.128407     -100.974960      -30.901297
 H         -36.264835     -102.474754      -33.847946
 H         -35.377003     -103.240158      -32.542580
 H         -38.417679     -102.325455      -30.063292
 H         -36.881943     -103.206764      -30.008818
 H         -35.896446     -100.313225      -32.747700
 H         -34.332844     -101.022575      -33.068161
 H         -36.235123     -101.083931      -29.145838
 H         -37.080524     -100.164124      -30.465757
 H         -34.688812     -100.002007      -30.614889
 H         -34.367046     -101.617653      -30.565107
