20
 generated by VMD
 C         -67.833633     -185.866974      -67.052727
 N         -68.600975     -185.390366      -67.760330
 H         -68.551201     -188.222015      -64.493126
 H         -67.052803     -186.289444      -66.494652
 C         -69.265968     -187.881210      -63.719185
 C         -68.989830     -186.584198      -63.220451
 C         -70.704964     -188.399765      -63.592388
 C         -69.375191     -186.478546      -61.704094
 C         -71.205994     -188.395172      -62.163258
 C         -70.865028     -186.970322      -61.514679
 H         -69.520477     -185.866577      -63.938694
 H         -67.951111     -186.265625      -63.382893
 H         -71.369881     -187.960159      -64.291985
 H         -70.744194     -189.421524      -64.042999
 H         -69.355705     -185.410126      -61.507439
 H         -68.724358     -187.117310      -61.033272
 H         -70.526199     -189.140839      -61.649033
 H         -72.245544     -188.764954      -61.975212
 H         -71.627388     -186.389679      -61.996811
 H         -71.063858     -186.888687      -60.502701
