20
 generated by VMD
 C         -69.795662     -180.799667      -61.301796
 N         -69.117195     -180.523834      -62.190708
 H         -66.644524     -180.015717      -59.197895
 H         -70.358894     -181.045013      -60.419228
 C         -66.188484     -179.151123      -59.657932
 C         -65.603958     -179.236603      -61.100933
 C         -65.872520     -177.958344      -58.824638
 C         -65.174477     -178.016785      -61.764683
 C         -65.511581     -176.731094      -59.640797
 C         -64.621010     -176.990204      -60.851440
 H         -66.315308     -179.812012      -61.673508
 H         -64.887581     -180.044449      -61.120399
 H         -66.624474     -177.591629      -58.102226
 H         -64.949730     -178.162781      -58.242672
 H         -66.045166     -177.495712      -62.211063
 H         -64.343460     -178.357666      -62.358624
 H         -65.272171     -175.930771      -58.943260
 H         -66.479378     -176.397018      -60.095943
 H         -64.645195     -176.013214      -61.323929
 H         -63.520241     -176.969818      -60.547440
