20
 generated by VMD
 C         -78.667259     -208.741714      -77.044128
 N         -79.411522     -208.464325      -76.164604
 H         -78.387787     -209.341553      -73.386955
 H         -78.053604     -209.017792      -77.952538
 C         -78.320190     -209.940567      -72.476532
 C         -76.973122     -209.718918      -71.748489
 C         -79.309448     -211.079239      -72.148453
 C         -77.204590     -210.024292      -70.244095
 C         -79.249435     -211.490646      -70.690720
 C         -77.837502     -211.346176      -70.111801
 H         -76.562508     -208.682404      -71.877861
 H         -76.286781     -210.421646      -72.193123
 H         -80.382370     -210.997894      -72.477997
 H         -78.783463     -211.879486      -72.737938
 H         -77.748329     -209.237122      -69.745232
 H         -76.198074     -210.042786      -69.743568
 H         -79.649506     -212.455231      -70.623894
 H         -79.857475     -210.878632      -69.936905
 H         -77.997528     -211.754868      -69.102509
 H         -77.128029     -212.108215      -70.476212
