20
 generated by VMD
 C         -41.071957     -103.992172      -35.906231
 N         -41.842731     -104.864838      -36.014400
 H         -38.266579     -103.996635      -33.465961
 H         -40.226982     -103.258812      -35.777931
 C         -38.346840     -104.897652      -32.792507
 C         -36.928493     -105.210709      -32.451099
 C         -39.256203     -105.988525      -33.097065
 C         -36.873440     -106.211174      -31.194908
 C         -39.173897     -107.021317      -32.003719
 C         -37.818512     -107.361870      -31.553001
 H         -36.309700     -104.301620      -32.206650
 H         -36.450119     -105.708054      -33.358196
 H         -40.347908     -105.616943      -33.240868
 H         -38.971413     -106.405609      -34.019657
 H         -37.236073     -105.738686      -30.281731
 H         -35.799568     -106.379486      -30.942722
 H         -39.660519     -107.885361      -32.584202
 H         -39.917416     -106.770020      -31.214212
 H         -38.000607     -107.980919      -30.727625
 H         -37.287498     -108.014755      -32.329544
