20
 generated by VMD
 C         -22.118345      -53.032486      -12.558083
 N         -22.987091      -52.484222      -13.038668
 H         -20.209839      -54.042934      -14.608463
 H         -21.424889      -53.349125      -11.985861
 C         -19.493387      -53.807766      -13.877669
 C         -18.930037      -52.475925      -13.615439
 C         -18.509052      -54.918083      -13.369452
 C         -17.472683      -52.428768      -14.143187
 C         -17.131227      -54.504765      -12.753362
 C         -16.538151      -53.303799      -13.392465
 H         -18.953867      -52.331718      -12.539593
 H         -19.479670      -51.758064      -14.156631
 H         -18.964357      -55.649944      -12.724008
 H         -18.365219      -55.514805      -14.283018
 H         -17.136562      -51.390987      -14.084651
 H         -17.459778      -52.706306      -15.188114
 H         -16.468975      -55.316425      -12.820980
 H         -17.265821      -54.340630      -11.645965
 H         -15.937173      -52.783741      -12.628253
 H         -15.814113      -53.711884      -14.172492
