20
 generated by VMD
 C          -3.549196      -17.428656        2.122230
 N          -3.146677      -18.459515        2.286242
 H          -5.604339      -20.431660        0.549504
 H          -5.958647      -21.088076       -0.965147
 C          -6.103395      -20.199720       -0.384660
 C          -5.525946      -18.944757       -0.956462
 C          -7.625096      -20.004745       -0.109220
 C          -6.195572      -18.391064       -2.125484
 C          -8.375224      -19.365458       -1.283341
 C          -7.635428      -18.065895       -1.741007
 H          -4.484726      -19.196379       -1.213933
 H          -5.512261      -18.136227       -0.164876
 H          -7.980062      -20.941130        0.104772
 H          -7.696847      -19.287399        0.667741
 H          -6.140103      -19.054674       -2.934710
 H          -5.661940      -17.453840       -2.353539
 H          -9.364668      -19.028421       -0.932118
 H          -8.533919      -20.047171       -2.146669
 H          -8.144383      -17.769104       -2.653177
 H          -7.793774      -17.307383       -0.970297
