20
 generated by VMD
 C         -47.783398     -136.891815      -46.076038
 N         -47.093727     -136.570602      -47.023182
 H         -50.526329     -136.032791      -45.193333
 H         -48.306423     -137.231796      -45.200260
 C         -51.047058     -136.995560      -44.928154
 C         -51.339611     -137.900818      -46.061516
 C         -52.070084     -136.774658      -43.825974
 C         -52.101940     -139.164825      -45.626461
 C         -52.805809     -138.112152      -43.423237
 C         -53.245651     -138.825928      -44.616451
 H         -50.368446     -138.285736      -46.438145
 H         -51.863113     -137.459717      -46.882027
 H         -51.669121     -136.332184      -42.942829
 H         -52.835606     -135.991516      -44.032116
 H         -51.371376     -139.943298      -45.179295
 H         -52.501156     -139.719894      -46.473572
 H         -53.363644     -137.933105      -42.511627
 H         -51.963547     -138.743958      -43.041054
 H         -53.740803     -139.843124      -44.116707
 H         -54.121342     -138.314758      -45.024490
