20
 generated by VMD
 C         -25.793308      -71.275795      -17.125664
 N         -25.525368      -71.467339      -16.005121
 H         -23.983261      -68.746567      -18.632074
 H         -25.875370      -71.119843      -18.156265
 C         -24.496330      -69.091690      -19.547041
 C         -23.735195      -69.979515      -20.523354
 C         -25.812828      -68.450592      -20.002081
 C         -24.888569      -70.915321      -21.259487
 C         -26.795221      -69.333519      -20.715128
 C         -26.198706      -70.171379      -21.802656
 H         -23.248867      -70.610046      -19.879068
 H         -23.102989      -69.348610      -21.209654
 H         -26.295687      -68.034874      -19.142147
 H         -25.597672      -67.463417      -20.465855
 H         -25.364372      -71.635231      -20.504330
 H         -24.470041      -71.455093      -22.084198
 H         -27.660030      -68.687424      -21.027491
 H         -27.364475      -69.991646      -19.981028
 H         -27.085165      -70.795464      -22.073244
 H         -25.996841      -69.617554      -22.792383
