20
 generated by VMD
 C         -74.544464     -200.972733      -66.111259
 N         -73.370346     -200.918228      -66.215523
 H         -76.426949     -198.755280      -68.764015
 H         -75.634697     -201.018936      -66.001305
 C         -75.440552     -198.344925      -68.755753
 C         -75.012039     -197.107620      -67.934174
 C         -74.491089     -198.986237      -69.687675
 C         -73.489494     -196.737518      -68.144531
 C         -73.230331     -198.200180      -70.021492
 C         -72.559349     -197.853195      -68.653069
 H         -75.125519     -197.198181      -66.745796
 H         -75.637260     -196.335403      -68.280876
 H         -74.196381     -199.901321      -69.203255
 H         -74.947838     -199.271515      -70.555580
 H         -73.057816     -196.246124      -67.239517
 H         -73.580818     -195.821198      -68.773186
 H         -73.566071     -197.374725      -70.610474
 H         -72.510788     -198.857330      -70.498566
 H         -72.540390     -198.639648      -67.906487
 H         -71.532036     -197.441727      -68.778725
