20
 generated by VMD
 C         -31.066639      -75.019844      -21.507463
 N         -31.810713      -75.892204      -21.785313
 H         -28.353725      -76.332115      -20.625158
 H         -30.234404      -74.299515      -21.613003
 C         -27.536304      -75.930771      -21.173975
 C         -26.711712      -76.975014      -21.905115
 C         -26.760780      -74.733276      -20.668121
 C         -25.724426      -76.399406      -22.854172
 C         -25.796200      -74.220505      -21.645729
 C         -24.884508      -75.319008      -22.224703
 H         -27.419275      -77.896179      -22.267921
 H         -26.188955      -77.514030      -21.093431
 H         -27.389606      -73.879471      -20.259981
 H         -26.057243      -75.116348      -19.815334
 H         -26.401466      -76.025185      -23.658689
 H         -25.081196      -77.183937      -23.323563
 H         -25.187445      -73.355164      -21.253132
 H         -26.276701      -73.718529      -22.571449
 H         -24.142786      -74.837212      -22.865076
 H         -24.277418      -75.844147      -21.481400
