20
 generated by VMD
 C         -69.955170     -183.022034      -65.957695
 N         -71.091499     -183.110107      -65.683517
 H         -67.252167     -183.127441      -63.101654
 H         -68.863144     -182.856705      -66.146111
 C         -67.397888     -182.691818      -62.125507
 C         -67.688553     -183.617157      -61.009769
 C         -67.327629     -181.225494      -61.982899
 C         -66.892410     -183.203171      -59.769753
 C         -66.245903     -180.888367      -60.852135
 C         -66.697548     -181.662750      -59.556087
 H         -67.487877     -184.647278      -61.314453
 H         -68.791595     -183.797211      -60.803883
 H         -66.835548     -180.655411      -62.858280
 H         -68.308075     -180.797455      -61.870293
 H         -65.793945     -183.545395      -59.775593
 H         -67.338112     -183.692886      -58.783073
 H         -66.244354     -179.792953      -60.682926
 H         -65.263145     -181.151047      -61.272209
 H         -65.959221     -181.341934      -58.699665
 H         -67.655968     -181.276047      -59.191685
