20
 generated by VMD
 C         -68.274185     -179.531342      -58.472557
 N         -67.473701     -179.178360      -57.726440
 H         -66.219398     -176.361786      -59.096409
 H         -68.980423     -179.993439      -59.149162
 C         -65.451149     -175.791946      -59.660133
 C         -66.110703     -174.673752      -60.439758
 C         -64.024033     -176.071793      -59.634949
 C         -65.180855     -173.426239      -60.562847
 C         -63.172226     -174.756927      -59.623203
 C         -63.720051     -173.726089      -60.635967
 H         -67.071693     -174.354462      -59.955170
 H         -66.362602     -175.324310      -61.345051
 H         -63.788807     -176.602249      -58.723652
 H         -63.695290     -176.608261      -60.431950
 H         -65.628662     -172.654770      -59.840679
 H         -65.493523     -172.965775      -61.575546
 H         -62.090984     -174.930328      -59.597816
 H         -63.359604     -174.400803      -58.562553
 H         -63.129524     -172.827301      -60.533779
 H         -63.494720     -174.282410      -61.522930
