20
 generated by VMD
 C         -29.749216      -89.678543      -25.532303
 N         -29.190845      -90.648422      -25.717201
 H         -32.164612      -91.691505      -27.474991
 H         -30.174192      -88.817184      -25.207809
 C         -32.969090      -90.953979      -27.578890
 C         -34.388386      -91.356079      -27.189161
 C         -32.715641      -89.568947      -28.172157
 C         -35.421391      -90.250870      -27.219986
 C         -33.697536      -88.495491      -27.931307
 C         -35.156761      -89.036613      -27.952230
 H         -34.394753      -91.848526      -26.192535
 H         -34.774830      -91.974419      -27.981384
 H         -31.698830      -89.250175      -27.912569
 H         -32.640396      -89.887802      -29.238066
 H         -35.630093      -89.980202      -26.108538
 H         -36.373489      -90.805206      -27.553804
 H         -33.631237      -87.655579      -28.647413
 H         -33.470119      -88.143448      -26.876661
 H         -35.678341      -88.099854      -27.637712
 H         -35.291210      -89.169044      -29.071220
