20
 generated by VMD
 C         -48.263645     -136.183090      -46.134094
 N         -47.067226     -136.109589      -46.043037
 H         -51.747593     -135.242645      -46.024841
 H         -49.330940     -136.218674      -45.933197
 C         -51.584160     -136.101791      -45.439915
 C         -52.185398     -137.304016      -46.023796
 C         -51.531567     -136.065384      -43.905270
 C         -51.982151     -138.671631      -45.259148
 C         -51.203320     -137.377350      -43.198223
 C         -51.904457     -138.636078      -43.800510
 H         -51.944424     -137.383148      -47.146317
 H         -53.227177     -137.124939      -45.909798
 H         -50.699429     -135.501053      -43.644924
 H         -52.381283     -135.674820      -43.370491
 H         -50.999035     -138.990265      -45.651714
 H         -52.640125     -139.396027      -45.685120
 H         -51.377533     -137.169861      -42.074322
 H         -50.136269     -137.472672      -43.263542
 H         -51.495075     -139.608719      -43.342216
 H         -53.055206     -138.708603      -43.441593
