20
 generated by VMD
 C          -5.740173      -21.340595        1.747653
 N          -6.431914      -22.165638        1.424137
 H          -5.068504      -19.028437       -0.829280
 H          -5.935930      -20.085201        0.248647
 C          -5.966501      -19.709774       -0.889154
 C          -5.608801      -20.939484       -1.779135
 C          -7.183664      -18.895937       -1.436804
 C          -6.784009      -21.836887       -2.148154
 C          -8.345737      -19.899237       -1.802186
 C          -7.901521      -21.017101       -2.816903
 H          -4.897407      -21.504139       -1.262270
 H          -5.105555      -20.618402       -2.728739
 H          -7.514023      -18.334202       -0.621619
 H          -6.772679      -18.477282       -2.336493
 H          -7.190824      -22.246769       -1.244324
 H          -6.433608      -22.632317       -2.810582
 H          -9.194041      -19.363514       -2.258875
 H          -8.634017      -20.357878       -0.859887
 H          -8.732480      -21.673353       -2.994727
 H          -7.540116      -20.593002       -3.725879
