20
 generated by VMD
 C         -49.054539     -126.991714      -38.899586
 N         -50.055000     -127.201118      -38.363518
 H         -46.830170     -125.211739      -39.662056
 H         -48.193668     -126.994362      -39.564617
 C         -46.075874     -124.547577      -40.107960
 C         -44.749004     -125.118111      -40.055233
 C         -46.207069     -123.179955      -40.506763
 C         -43.649075     -124.677605      -41.050472
 C         -45.175644     -122.596367      -41.556095
 C         -43.780895     -123.146828      -41.479584
 H         -44.848881     -126.138794      -40.032753
 H         -44.259155     -124.966194      -39.077911
 H         -47.312859     -122.975845      -40.818798
 H         -45.942654     -122.548882      -39.583130
 H         -43.654709     -125.334023      -41.969742
 H         -42.650322     -124.752129      -40.531193
 H         -45.037708     -121.439018      -41.583607
 H         -45.624268     -122.917908      -42.579853
 H         -43.222675     -123.113647      -42.435513
 H         -43.265594     -122.606918      -40.692081
