20
 generated by VMD
 C         -78.128426     -203.497528      -69.543785
 N         -78.897461     -204.346054      -69.428307
 H         -75.255241     -202.031189      -67.217903
 H         -77.431740     -202.635895      -69.427597
 C         -75.004311     -201.700378      -68.288223
 C         -74.979454     -200.320724      -68.612991
 C         -73.753105     -202.484161      -68.714127
 C         -74.823738     -200.106720      -70.125282
 C         -72.944031     -201.818298      -69.910278
 C         -73.728004     -201.018433      -70.841637
 H         -74.135483     -199.945068      -68.011536
 H         -75.866676     -199.833282      -68.218956
 H         -73.064445     -202.673233      -67.868294
 H         -74.246033     -203.496964      -69.105797
 H         -74.509880     -199.068283      -70.173187
 H         -75.852715     -200.123627      -70.588974
 H         -72.478813     -202.609406      -70.481483
 H         -72.175232     -201.209915      -69.442924
 H         -73.098732     -200.323120      -71.453674
 H         -74.203133     -201.659210      -71.531578
