20
 generated by VMD
 C         -49.709854     -127.765663      -39.015762
 N         -49.752480     -126.708572      -38.537083
 H         -47.117210     -125.731003      -40.891987
 H         -49.396160     -128.663086      -39.488846
 C         -46.198772     -125.161430      -40.888004
 C         -44.896435     -125.518547      -40.324257
 C         -46.336956     -123.641167      -40.892719
 C         -43.679764     -124.802467      -41.006023
 C         -45.171097     -122.945618      -41.546249
 C         -43.878704     -123.312859      -40.818432
 H         -44.656170     -126.581009      -40.425743
 H         -44.910728     -125.303902      -39.133980
 H         -47.241238     -123.129288      -41.375271
 H         -46.405293     -123.389328      -39.892303
 H         -43.470367     -125.238434      -42.007961
 H         -42.829811     -125.078674      -40.350468
 H         -45.420574     -121.972122      -41.365196
 H         -45.064468     -123.076019      -42.608883
 H         -43.007687     -122.752220      -41.186707
 H         -43.812687     -123.140892      -39.762718
