20
 generated by VMD
 C         -47.364376     -139.075912      -45.709526
 N         -46.830864     -138.610596      -46.587013
 H         -50.772343     -138.825439      -44.730488
 H         -47.979347     -139.369171      -44.848671
 C         -51.764496     -138.924652      -45.146061
 C         -51.838490     -139.109451      -46.600239
 C         -52.969570     -138.426010      -44.388336
 C         -52.918446     -140.189133      -46.861195
 C         -54.101116     -139.397293      -44.621670
 C         -54.266453     -139.764740      -46.160889
 H         -50.826420     -139.584305      -46.930950
 H         -51.801853     -138.153778      -47.141090
 H         -52.739937     -138.402802      -43.288353
 H         -53.175137     -137.364471      -44.703396
 H         -52.814960     -141.243469      -46.569435
 H         -53.077717     -140.260117      -47.915031
 H         -55.078590     -139.227859      -44.198158
 H         -53.759102     -140.334259      -43.974197
 H         -55.022427     -140.563583      -46.293903
 H         -54.634472     -138.866852      -46.644997
