20
 generated by VMD
 C          -1.916900      -13.136110        0.516826
 N          -1.575582      -13.441860        1.532416
 H          -3.695986      -16.296074        1.865201
 H          -3.816145      -16.049185        0.128438
 C          -4.379066      -16.289043        1.030763
 C          -5.363270      -15.201627        1.507035
 C          -5.015964      -17.646957        0.958767
 C          -6.630478      -15.158594        0.779942
 C          -6.286538      -17.686768        0.093820
 C          -7.257192      -16.548471        0.622405
 H          -4.805453      -14.220401        1.564018
 H          -5.551226      -15.336971        2.568581
 H          -4.253854      -18.390543        0.437863
 H          -5.257062      -18.025902        2.019638
 H          -6.532481      -14.731851       -0.238454
 H          -7.407595      -14.546001        1.304046
 H          -6.808705      -18.648844        0.087383
 H          -5.932158      -17.403473       -0.952268
 H          -8.182615      -16.468515        0.052473
 H          -7.552858      -16.819099        1.647435
