20
 generated by VMD
 C         -13.191120      -27.878380       -2.682302
 N         -13.979076      -27.247755       -3.180314
 H         -10.455079      -27.568756       -3.473519
 H          -9.633269      -26.643791       -4.697866
 C          -9.485096      -27.418242       -3.876804
 C          -8.896384      -28.757921       -4.297242
 C          -8.610839      -26.829920       -2.736178
 C          -7.494571      -28.489443       -4.923188
 C          -7.218105      -26.589893       -3.297530
 C          -6.649357      -27.871782       -3.812473
 H          -9.462627      -29.270477       -5.118788
 H          -8.918824      -29.537945       -3.491863
 H          -9.043300      -25.846727       -2.445182
 H          -8.579473      -27.419353       -1.834164
 H          -7.647262      -27.837410       -5.827307
 H          -7.104309      -29.455631       -5.404765
 H          -6.604617      -26.196920       -2.524930
 H          -7.150366      -25.801489       -4.077608
 H          -5.682930      -27.607086       -4.279331
 H          -6.506697      -28.594433       -3.030612
