20
 generated by VMD
 C         -50.675877     -129.009277      -42.520405
 N         -51.125721     -128.160019      -41.897400
 H         -48.320473     -128.162506      -40.717655
 H         -50.148682     -129.683151      -43.159588
 C         -47.267971     -127.698235      -40.856056
 C         -46.024033     -128.169662      -40.105309
 C         -47.065830     -126.187218      -41.129932
 C         -44.778717     -128.011002      -40.910286
 C         -45.733490     -125.879616      -41.917099
 C         -44.521790     -126.533340      -41.271584
 H         -46.056847     -129.256760      -39.804329
 H         -45.900631     -127.613373      -39.185959
 H         -48.023094     -126.013885      -41.741016
 H         -46.961430     -125.572456      -40.114864
 H         -44.853752     -128.582550      -41.869682
 H         -43.878075     -128.270447      -40.265301
 H         -45.491573     -124.870262      -42.101730
 H         -45.771450     -126.318642      -42.878059
 H         -43.603947     -126.626617      -41.883038
 H         -44.098213     -126.019966      -40.396515
