20
 generated by VMD
 C         -30.134630      -76.003670      -23.208239
 N         -30.880051      -75.634590      -23.965347
 H         -29.225431      -78.778305      -21.609798
 H         -29.677910      -76.160789      -22.123695
 C         -28.393238      -78.104904      -21.654915
 C         -27.588003      -78.095100      -22.914225
 C         -27.662216      -77.606041      -20.401793
 C         -26.715988      -76.893814      -23.223951
 C         -26.891090      -76.349785      -20.661022
 C         -25.972498      -76.497833      -21.919907
 H         -28.292599      -78.111320      -23.702682
 H         -27.047804      -79.077080      -22.989906
 H         -28.322048      -77.527222      -19.627495
 H         -26.973507      -78.391724      -20.062881
 H         -27.176008      -75.962891      -23.598791
 H         -25.996174      -77.257812      -23.972942
 H         -26.354374      -76.159378      -19.721209
 H         -27.694168      -75.554726      -20.775644
 H         -25.465883      -75.554138      -21.991817
 H         -25.023008      -77.133789      -21.840313
