20
 generated by VMD
 C         -10.427729      -39.735241       -6.768235
 N         -11.218166      -40.132492       -6.106189
 H         -13.550611      -40.558510       -8.989806
 H         -15.183349      -39.915104       -9.530268
 C         -14.651109      -40.837711       -9.327149
 C         -15.277964      -41.630867       -8.167990
 C         -14.698028      -41.644955      -10.657718
 C         -16.732082      -42.020302       -8.480884
 C         -16.172167      -42.038513      -10.942801
 C         -16.829285      -42.878330       -9.805990
 H         -15.285253      -41.084362       -7.256976
 H         -14.666665      -42.511082       -7.971703
 H         -14.263240      -41.062145      -11.442566
 H         -14.035415      -42.560204      -10.690863
 H         -17.375608      -41.128368       -8.478381
 H         -17.204306      -42.550655       -7.639050
 H         -16.190865      -42.704247      -11.898048
 H         -16.768997      -41.182415      -11.104537
 H         -17.864632      -43.036819      -10.075614
 H         -16.287306      -43.839920       -9.697550
