20
 generated by VMD
 C          -9.487243      -24.990044        0.655699
 N         -10.395153      -25.459093        1.129119
 H          -6.264066      -23.233730       -0.832598
 H          -7.893541      -22.727232       -1.173631
 C          -6.955266      -23.095488       -1.631689
 C          -7.307290      -24.476179       -2.271863
 C          -6.420405      -22.140177       -2.599931
 C          -8.117002      -24.345997       -3.589333
 C          -7.190686      -22.050472       -3.884811
 C          -7.499354      -23.340990       -4.501136
 H          -7.887152      -25.174606       -1.649593
 H          -6.342680      -24.856892       -2.551322
 H          -6.274437      -21.127356       -2.142657
 H          -5.431045      -22.429733       -2.920024
 H          -9.125177      -23.976002       -3.298821
 H          -8.167668      -25.287228       -4.123223
 H          -6.606142      -21.413971       -4.552622
 H          -8.121902      -21.529104       -3.737351
 H          -8.126822      -23.203497       -5.450577
 H          -6.603704      -23.829603       -4.933861
