20
 generated by VMD
 C         -19.609024      -49.993370       -9.385373
 N         -19.613527      -51.135887       -9.649306
 H         -16.461407      -47.809948      -10.057447
 H         -19.363510      -49.046539       -8.750878
 C         -16.707804      -48.153561      -11.065262
 C         -15.597598      -49.031975      -11.568791
 C         -17.299652      -47.206161      -12.038029
 C         -16.135984      -49.858162      -12.777990
 C         -17.943947      -48.014915      -13.185674
 C         -16.960974      -49.006489      -13.790248
 H         -15.345829      -49.765511      -10.813438
 H         -14.716956      -48.418518      -11.848072
 H         -18.155899      -46.669014      -11.597884
 H         -16.610161      -46.463779      -12.473815
 H         -16.774601      -50.669186      -12.398639
 H         -15.250436      -50.244362      -13.287627
 H         -18.285940      -47.272781      -13.926305
 H         -18.828447      -48.644463      -12.773512
 H         -17.398544      -49.699245      -14.482180
 H         -16.325361      -48.419823      -14.373919
