20
 generated by VMD
 C         -22.758474      -55.420452      -17.131708
 N         -23.094635      -54.411880      -17.593628
 H         -20.276094      -56.001003      -14.976919
 H         -22.243967      -56.318024      -16.870485
 C         -20.075790      -57.010555      -14.520336
 C         -20.670378      -57.348278      -13.133699
 C         -18.901485      -57.719776      -15.031124
 C         -20.879147      -58.815983      -13.162005
 C         -19.215578      -59.205078      -15.005898
 C         -19.839975      -59.626415      -13.755256
 H         -21.543690      -56.745777      -12.862041
 H         -19.907778      -57.140800      -12.317464
 H         -18.590055      -57.419922      -16.039305
 H         -17.995359      -57.465351      -14.407969
 H         -21.819206      -59.023521      -13.627713
 H         -21.009052      -59.070652      -12.089155
 H         -18.278322      -59.740818      -15.113458
 H         -19.869879      -59.462196      -15.873052
 H         -20.167053      -60.628651      -13.813236
 H         -18.950495      -59.738445      -13.129052
