20
 generated by VMD
 C         -30.133970      -92.706657      -25.399714
 N         -30.986538      -93.375549      -25.808487
 H         -32.951080      -91.252235      -26.404177
 H         -29.197645      -92.165169      -25.033573
 C         -33.588943      -91.250458      -27.314068
 C         -34.788509      -92.113914      -27.376406
 C         -33.161411      -90.482796      -28.514612
 C         -35.884960      -91.665787      -28.426655
 C         -34.320312      -89.944351      -29.396959
 C         -35.296757      -91.095848      -29.745117
 H         -35.180847      -92.285622      -26.418013
 H         -34.610233      -93.066055      -27.794512
 H         -32.578594      -89.619827      -28.189171
 H         -32.351200      -91.049110      -29.011127
 H         -36.511993      -90.912926      -27.869289
 H         -36.496758      -92.511620      -28.517588
 H         -34.100449      -89.577850      -30.362885
 H         -34.942631      -89.183762      -28.972927
 H         -36.050564      -90.761284      -30.522114
 H         -34.785694      -91.984306      -30.148462
