20
 generated by VMD
 C          -2.436725       -9.025507        0.507513
 N          -1.606399       -9.506078       -0.017520
 H          -2.432818      -11.806301        2.624280
 H          -3.462176      -12.385789        3.913310
 C          -3.206230      -12.558523        2.851156
 C          -2.806358      -13.975578        2.634267
 C          -4.540476      -12.164824        2.140501
 C          -3.847949      -14.914589        3.103268
 C          -5.563379      -13.140768        2.649590
 C          -5.200504      -14.662462        2.450858
 H          -1.926267      -14.183751        3.317192
 H          -2.484331      -14.193499        1.551034
 H          -4.773843      -11.104875        2.285558
 H          -4.389856      -12.343163        1.087565
 H          -3.980942      -14.940646        4.187623
 H          -3.545720      -15.950640        2.818713
 H          -6.495087      -12.965559        2.069741
 H          -5.789081      -13.022605        3.723139
 H          -5.921066      -15.257551        2.963900
 H          -5.295873      -14.972321        1.409941
