20
 generated by VMD
 C         -50.086712     -128.645676      -43.475056
 N         -50.757015     -129.304977      -44.198776
 H         -48.894157     -128.160400      -39.830994
 H         -49.636848     -128.044968      -42.699348
 C         -47.900772     -128.229416      -40.282562
 C         -46.791283     -129.287048      -39.935135
 C         -47.253510     -126.961540      -40.791534
 C         -45.845623     -129.525894      -41.132011
 C         -46.285751     -127.283333      -42.059158
 C         -45.194736     -128.255417      -41.747036
 H         -47.324089     -130.245972      -39.615318
 H         -46.121178     -128.951065      -39.179256
 H         -47.885921     -126.251274      -41.213428
 H         -46.572750     -126.390953      -40.072559
 H         -46.440491     -129.989395      -41.949116
 H         -45.029984     -130.171509      -40.957497
 H         -45.782883     -126.306709      -42.313614
 H         -46.866375     -127.634605      -42.941219
 H         -44.510712     -128.614380      -42.491482
 H         -44.529045     -127.813858      -40.929893
