20
 generated by VMD
 C         -68.613342     -186.249649      -67.830650
 N         -68.246445     -187.326065      -67.518791
 H         -68.290634     -187.672119      -64.373543
 H         -68.963844     -185.275513      -68.109016
 C         -69.130226     -187.566681      -63.655727
 C         -68.950409     -187.334396      -62.268471
 C         -70.467567     -187.523407      -64.308235
 C         -69.863907     -188.150970      -61.395969
 C         -71.595322     -187.966095      -63.395741
 C         -71.406036     -187.810074      -61.834354
 H         -69.158569     -186.302536      -62.288521
 H         -67.960915     -187.613571      -61.991108
 H         -70.676216     -186.446457      -64.620987
 H         -70.533241     -188.210953      -65.193222
 H         -69.679405     -187.960236      -60.283298
 H         -69.728035     -189.221222      -61.505508
 H         -71.682770     -188.963776      -63.709351
 H         -72.412239     -187.310379      -63.631416
 H         -71.676239     -186.768661      -61.534718
 H         -71.904274     -188.639313      -61.173908
