20
 generated by VMD
 C         -20.487392      -56.452477      -16.841524
 N         -21.403372      -55.904587      -17.303690
 H         -22.245426      -58.563808      -16.692318
 H         -19.752100      -56.850704      -16.057264
 C         -22.125261      -59.354092      -15.968817
 C         -22.320368      -59.243202      -14.518285
 C         -21.705147      -60.604389      -16.542540
 C         -21.088394      -59.737942      -13.754580
 C         -20.793108      -61.405445      -15.659074
 C         -20.800667      -61.157242      -14.114802
 H         -23.251547      -59.718628      -14.217353
 H         -22.529654      -58.203804      -14.205569
 H         -22.531446      -61.202171      -16.931429
 H         -21.098013      -60.347340      -17.435104
 H         -21.148384      -59.574650      -12.690200
 H         -20.169798      -59.180206      -14.109257
 H         -19.725986      -61.439064      -16.018867
 H         -20.969139      -62.478909      -15.802884
 H         -21.599302      -61.681221      -13.612734
 H         -19.794130      -61.451729      -13.699598
