20
 generated by VMD
 C         -79.656097     -206.900330      -75.277069
 N         -79.917297     -207.528091      -74.312485
 H         -76.846214     -208.000427      -73.307137
 H         -79.297005     -206.216614      -76.106804
 C         -76.840759     -208.121567      -72.252968
 C         -75.559464     -207.917358      -71.466278
 C         -77.960739     -209.023468      -71.728134
 C         -76.027718     -207.591156      -69.959229
 C         -78.055626     -209.041763      -70.224068
 C         -76.877495     -208.733780      -69.308289
 H         -75.020897     -207.041809      -71.774612
 H         -74.955597     -208.838348      -71.435425
 H         -78.905663     -208.706833      -72.120331
 H         -77.764893     -210.067337      -72.097229
 H         -76.698273     -206.732742      -69.920082
 H         -75.144325     -207.546402      -69.311333
 H         -78.658699     -209.844528      -69.838486
 H         -78.778061     -208.148438      -70.147812
 H         -77.303177     -208.563126      -68.288551
 H         -76.082481     -209.437790      -69.337189
