20
 generated by VMD
 C         -17.904528      -48.471657       -7.043995
 N         -17.436630      -47.720940       -6.351557
 H         -16.501013      -48.483067      -10.406462
 H         -15.837666      -48.991264      -11.907451
 C         -16.339066      -48.122162      -11.444660
 C         -15.420568      -46.868916      -11.385934
 C         -17.682592      -47.852406      -12.066232
 C         -15.417739      -46.090015      -12.665350
 C         -17.479275      -47.259136      -13.459493
 C         -16.826275      -45.874115      -13.304566
 H         -14.386319      -47.154629      -11.135354
 H         -15.888105      -46.266853      -10.610617
 H         -18.316984      -48.739086      -12.100447
 H         -18.129566      -47.099133      -11.434561
 H         -14.756532      -46.562386      -13.404461
 H         -15.004642      -45.087009      -12.441856
 H         -18.415659      -47.141441      -14.003385
 H         -16.888977      -48.094353      -14.031598
 H         -16.763668      -45.314335      -14.281615
 H         -17.422680      -45.272770      -12.599031
