20
 generated by VMD
 C         -70.589066     -181.290298      -64.066010
 N         -70.656349     -182.276123      -63.403656
 H         -68.401489     -181.240143      -61.140373
 H         -70.522591     -180.301743      -64.567268
 C         -67.360779     -180.891098      -60.882393
 C         -66.132133     -181.567032      -60.379005
 C         -67.360977     -179.433945      -60.520832
 C         -64.872284     -180.936035      -60.830650
 C         -66.005974     -178.721130      -60.775024
 C         -64.680542     -179.434601      -60.273396
 H         -66.206573     -182.634750      -60.699665
 H         -66.266418     -181.485840      -59.325085
 H         -68.125565     -178.824570      -61.074219
 H         -67.637650     -179.302841      -59.547394
 H         -64.925377     -180.957596      -61.873699
 H         -64.129211     -181.559601      -60.440044
 H         -66.029190     -177.694214      -60.334583
 H         -65.902275     -178.455185      -61.840240
 H         -63.696663     -179.088928      -60.851650
 H         -64.617340     -179.285339      -59.195885
