20
 generated by VMD
 C         -49.705070     -127.292938      -40.008556
 N         -49.174862     -126.766670      -39.136665
 H         -46.860462     -126.894730      -42.048325
 H         -49.947227     -127.864090      -40.902676
 C         -46.380230     -126.059982      -41.506550
 C         -45.257725     -126.514954      -40.500286
 C         -46.742039     -124.673660      -41.325890
 C         -44.055645     -125.603348      -40.489223
 C         -45.586044     -123.693428      -41.420265
 C         -44.468964     -124.117386      -40.531799
 H         -45.002487     -127.625534      -40.603630
 H         -45.735146     -126.516724      -39.528732
 H         -47.526890     -124.458344      -42.069992
 H         -47.469494     -124.508377      -40.361240
 H         -43.335453     -125.650208      -41.338501
 H         -43.415066     -125.716721      -39.568718
 H         -45.969402     -122.747818      -41.008190
 H         -45.302902     -123.444649      -42.469227
 H         -43.620293     -123.510170      -40.693382
 H         -44.788593     -123.969475      -39.466656
