20
 generated by VMD
 C         -12.053245      -31.522923       -8.447317
 N         -12.201709      -30.635387       -7.757089
 H         -11.034252      -34.880928       -7.842104
 H         -12.414770      -34.044758       -7.153342
 C         -11.598499      -34.748154       -6.881495
 C         -10.685357      -34.113121       -5.929678
 C         -12.300572      -35.996090       -6.348429
 C         -11.215787      -34.050926       -4.575314
 C         -12.818066      -35.979752       -4.919116
 C         -11.727575      -35.362804       -4.000587
 H         -10.265776      -33.113964       -6.202080
 H          -9.813173      -34.755833       -5.897374
 H         -13.043124      -36.378342       -7.049644
 H         -11.488093      -36.738800       -6.378522
 H         -11.983378      -33.279114       -4.462911
 H         -10.458768      -33.601154       -3.878180
 H         -13.144207      -37.003124       -4.538007
 H         -13.661437      -35.359745       -4.830783
 H         -12.075421      -35.242119       -2.967241
 H         -10.899618      -36.131363       -4.038062
