20
 generated by VMD
 C         -41.071941     -104.442078      -36.091358
 N         -42.043266     -104.996666      -36.438698
 H         -38.369804     -104.025375      -33.325428
 H         -40.016716     -104.210922      -35.874962
 C         -38.175274     -105.081551      -32.927208
 C         -36.945488     -105.567650      -32.264492
 C         -39.178661     -106.220459      -33.319355
 C         -37.347282     -106.675743      -31.144308
 C         -39.390209     -107.349129      -32.259377
 C         -38.146320     -107.897362      -31.662544
 H         -36.491745     -104.828804      -31.610172
 H         -36.301022     -105.966164      -32.953140
 H         -40.200905     -105.812126      -33.604885
 H         -38.756462     -106.553131      -34.280033
 H         -37.722466     -106.086128      -30.246674
 H         -36.367111     -107.143265      -30.867006
 H         -40.065880     -108.078598      -32.786934
 H         -40.101036     -107.065491      -31.474461
 H         -38.305714     -108.583763      -30.799274
 H         -37.614143     -108.484802      -32.421932
