20
 generated by VMD
 C         -47.852020     -134.807449      -46.395588
 N         -47.868614     -134.627487      -47.578350
 H         -50.533329     -134.545578      -45.259491
 H         -48.215473     -135.234924      -45.412083
 C         -50.903534     -135.471039      -44.684738
 C         -51.413929     -136.663025      -45.365395
 C         -51.145702     -135.275146      -43.161095
 C         -51.231945     -138.018890      -44.501179
 C         -50.971497     -136.529785      -42.361893
 C         -51.622261     -137.756699      -43.062458
 H         -50.860638     -136.926941      -46.205330
 H         -52.503052     -136.603226      -45.754894
 H         -50.564018     -134.360214      -42.802116
 H         -52.238567     -135.000977      -42.950596
 H         -50.222294     -138.472260      -44.428677
 H         -51.791744     -138.830902      -44.984669
 H         -51.435913     -136.469727      -41.438347
 H         -49.912609     -136.621719      -42.291367
 H         -51.297596     -138.716202      -42.365990
 H         -52.748989     -137.571747      -43.237305
