20
 generated by VMD
 C         -19.656116      -60.299042      -17.793629
 N         -19.720518      -59.141529      -17.994434
 H         -22.825779      -59.842487      -15.910420
 H         -19.661638      -61.315166      -17.823238
 C         -22.935621      -60.867306      -16.032713
 C         -23.338549      -61.555931      -17.225109
 C         -23.427032      -61.586514      -14.788441
 C         -22.762356      -62.962215      -17.279024
 C         -22.795879      -63.075420      -14.739438
 C         -23.159496      -63.773880      -16.067345
 H         -22.932659      -60.956612      -18.060526
 H         -24.469284      -61.621670      -17.266424
 H         -22.888418      -61.098034      -13.896061
 H         -24.525476      -61.548481      -14.900580
 H         -21.706217      -62.966885      -17.337685
 H         -22.976467      -63.471096      -18.235029
 H         -23.309488      -63.600582      -13.878044
 H         -21.677736      -63.047184      -14.658146
 H         -22.811079      -64.859314      -16.207483
 H         -24.279417      -63.775475      -16.030369
