20
 generated by VMD
 C         -41.024780     -103.741875      -35.833279
 N         -41.608459     -104.744164      -35.781490
 H         -38.978252     -103.969131      -33.410545
 H         -40.213924     -103.085625      -35.797581
 C         -38.435806     -104.861832      -32.944363
 C         -37.022903     -104.996857      -32.542759
 C         -39.181282     -106.119331      -33.021278
 C         -36.867924     -105.945358      -31.406977
 C         -39.201801     -107.039307      -31.708660
 C         -37.665428     -107.283012      -31.513111
 H         -36.565720     -104.095596      -32.195889
 H         -36.399372     -105.306648      -33.370029
 H         -40.193626     -105.895302      -33.215164
 H         -38.754040     -106.712006      -33.906563
 H         -37.221416     -105.383194      -30.481747
 H         -35.768246     -106.107002      -31.452843
 H         -39.865208     -107.871788      -31.864607
 H         -39.449261     -106.360695      -30.854767
 H         -37.533073     -107.768593      -30.496643
 H         -37.225090     -107.857780      -32.288593
