20
 generated by VMD
 C         -78.759026     -208.133224      -76.776421
 N         -78.842857     -208.187164      -75.649292
 H         -78.924934     -209.976898      -73.542877
 H         -78.522827     -207.982590      -77.828651
 C         -78.573647     -210.183044      -72.517509
 C         -77.324226     -209.446899      -72.183975
 C         -79.194229     -211.316864      -71.770226
 C         -77.061440     -209.352005      -70.659065
 C         -78.950974     -211.185532      -70.233002
 C         -77.435890     -210.788345      -69.937912
 H         -77.412254     -208.464890      -72.683723
 H         -76.495407     -209.904297      -72.820824
 H         -80.333504     -211.451004      -71.945274
 H         -78.707893     -212.271210      -72.036217
 H         -77.441513     -208.434082      -70.146988
 H         -75.963699     -209.242630      -70.497772
 H         -79.138954     -212.197739      -69.797722
 H         -79.543701     -210.459259      -69.747017
 H         -77.155464     -210.849899      -68.851852
 H         -76.703873     -211.504150      -70.410721
