20
 generated by VMD
 C         -79.453659     -208.981491      -76.366547
 N         -79.092720     -209.912277      -76.925133
 H         -77.659912     -209.267456      -72.983803
 H         -79.794563     -208.101364      -75.886520
 C         -77.920570     -210.207260      -72.475143
 C         -77.021996     -210.737305      -71.371628
 C         -79.113831     -211.009491      -72.841454
 C         -77.811371     -211.220093      -70.229889
 C         -79.707451     -211.755569      -71.681000
 C         -78.731827     -212.279236      -70.723518
 H         -76.525467     -209.881531      -70.969086
 H         -76.266548     -211.393723      -71.679581
 H         -79.970924     -210.409256      -73.165535
 H         -78.794304     -211.683243      -73.709305
 H         -78.296738     -210.359253      -69.745773
 H         -77.025925     -211.666718      -69.629265
 H         -80.377487     -212.462982      -71.974197
 H         -80.374580     -211.029007      -71.014465
 H         -79.125183     -212.990860      -69.992897
 H         -78.010681     -212.909836      -71.276802
