20
 generated by VMD
 C         -78.216309     -204.292587      -69.381790
 N         -79.063934     -203.786972      -69.994537
 H         -76.160400     -202.670914      -67.882286
 H         -77.549149     -204.656891      -68.678619
 C         -75.327721     -202.210922      -68.442665
 C         -75.447830     -200.960815      -69.156693
 C         -74.224228     -203.083282      -69.058640
 C         -74.883537     -200.926331      -70.554543
 C         -72.940605     -202.246643      -69.506668
 C         -73.362495     -201.110809      -70.559464
 H         -74.976532     -200.160889      -68.633720
 H         -76.550507     -200.647202      -69.247223
 H         -73.863075     -203.791733      -68.307816
 H         -74.554199     -203.494034      -70.034142
 H         -75.057854     -199.935684      -70.961319
 H         -75.399200     -201.568695      -71.259567
 H         -72.197281     -202.965164      -69.853775
 H         -72.692223     -201.570160      -68.680168
 H         -72.781746     -200.094742      -70.463158
 H         -73.168327     -201.443756      -71.556854
