20
 generated by VMD
 C         -49.735600     -131.822617      -46.610626
 N         -50.069019     -132.622818      -47.457901
 H         -48.105526     -132.693161      -44.198296
 H         -49.497833     -131.563690      -45.597908
 C         -48.852776     -133.019806      -43.515285
 C         -49.526619     -134.265427      -43.997334
 C         -48.976562     -132.463974      -42.098042
 C         -49.373055     -135.364319      -42.855328
 C         -48.859425     -133.634888      -41.140266
 C         -49.835720     -134.771637      -41.521526
 H         -49.098213     -134.757309      -44.833797
 H         -50.567772     -134.075027      -44.249615
 H         -48.100758     -131.900131      -41.841209
 H         -49.899120     -131.751755      -42.011967
 H         -48.309662     -135.756256      -42.814209
 H         -50.020573     -136.287613      -43.005997
 H         -49.030712     -133.168945      -40.143936
 H         -47.863419     -134.066223      -41.111233
 H         -49.720947     -135.427933      -40.733528
 H         -50.859158     -134.355621      -41.625275
