20
 generated by VMD
 C         -31.481390      -75.674469      -23.738640
 N         -30.992525      -76.144615      -24.667198
 H         -29.675436      -78.415024      -22.210222
 H         -32.234295      -75.265984      -23.107899
 C         -28.598040      -78.155144      -21.991518
 C         -27.587790      -78.374893      -23.098663
 C         -28.008663      -78.161835      -20.571913
 C         -26.282686      -77.363991      -23.010675
 C         -26.805315      -77.158821      -20.543592
 C         -25.747719      -77.540230      -21.627974
 H         -28.135595      -78.167480      -24.170513
 H         -27.352646      -79.496490      -23.238052
 H         -28.710371      -77.953941      -19.786039
 H         -27.690388      -79.181244      -20.311426
 H         -26.462595      -76.320732      -23.264051
 H         -25.563890      -77.695221      -23.764353
 H         -26.324114      -77.263710      -19.500576
 H         -27.113806      -76.088669      -20.689091
 H         -24.871613      -76.866386      -21.344515
 H         -25.581512      -78.604950      -21.505297
