20
 generated by VMD
 C         -13.117625      -28.622631       -5.486305
 N         -12.757355      -27.556213       -5.491116
 H         -11.270239      -31.023201       -3.220784
 H         -11.124699      -29.384933       -4.009866
 C         -10.580172      -30.266314       -3.632640
 C          -9.801668      -30.969942       -4.764802
 C          -9.607280      -29.771276       -2.499019
 C          -8.637950      -30.110886       -5.274644
 C          -8.631296      -28.740463       -3.149334
 C          -7.774308      -29.416592       -4.318693
 H         -10.533640      -31.220835       -5.513760
 H          -9.313787      -31.921488       -4.400918
 H         -10.257348      -29.301865       -1.729232
 H          -9.141333      -30.640238       -2.063908
 H          -9.116241      -29.348482       -5.935628
 H          -7.944076      -30.732662       -5.884317
 H          -7.914644      -28.335238       -2.437073
 H          -9.146523      -27.880392       -3.578394
 H          -7.198533      -28.610878       -4.844914
 H          -7.186976      -30.148199       -3.791148
