20
 generated by VMD
 C         -28.116909      -72.655975      -18.078651
 N         -28.359367      -73.587257      -17.489738
 H         -24.880863      -71.346985      -18.670013
 H         -27.656868      -71.800888      -18.746775
 C         -25.174007      -71.535767      -19.750082
 C         -24.575167      -72.660408      -20.493105
 C         -25.796530      -70.375793      -20.471306
 C         -25.037523      -72.714088      -21.976942
 C         -26.586685      -70.806473      -21.762022
 C         -25.571537      -71.511818      -22.661695
 H         -24.801884      -73.577194      -20.019779
 H         -23.503744      -72.616432      -20.429281
 H         -26.545206      -69.884621      -19.753294
 H         -25.101437      -69.582558      -20.704235
 H         -25.732958      -73.575035      -22.033443
 H         -24.214010      -73.201988      -22.534254
 H         -26.913712      -70.005318      -22.351896
 H         -27.365503      -71.396492      -21.416332
 H         -26.123230      -71.715591      -23.609632
 H         -24.661253      -70.877731      -22.943960
