20
 generated by VMD
 C         -12.624801      -28.583923       -5.948685
 N         -13.138734      -27.668674       -5.576910
 H         -11.728304      -31.362032       -3.897752
 H         -11.248102      -29.990627       -4.776522
 C         -10.790854      -30.780174       -4.116044
 C          -9.756490      -31.521952       -4.872923
 C         -10.185072      -30.171545       -2.851923
 C          -8.650912      -30.629787       -5.272297
 C          -8.969018      -29.361309       -3.218983
 C          -7.969700      -30.054445       -4.058630
 H         -10.151587      -32.008442       -5.849705
 H          -9.322649      -32.340847       -4.352591
 H         -10.872513      -29.541031       -2.330651
 H          -9.851349      -30.946535       -2.156875
 H          -9.063027      -29.759830       -5.821031
 H          -7.931349      -31.109819       -6.001968
 H          -8.509982      -28.967070       -2.268085
 H          -9.289133      -28.474773       -3.712256
 H          -7.253723      -29.386303       -4.453471
 H          -7.497183      -30.835367       -3.476748
