20
 generated by VMD
 C         -80.689255     -205.698685      -72.028397
 N         -79.928795     -206.602997      -71.927994
 H         -76.877907     -204.577560      -72.229263
 H         -81.501122     -205.044647      -71.838692
 C         -76.133072     -204.556488      -71.346222
 C         -74.957458     -203.515640      -71.070862
 C         -76.106873     -205.931503      -70.629471
 C         -74.232918     -203.651245      -69.766624
 C         -75.640846     -205.796906      -69.264137
 C         -74.244804     -205.203827      -69.307823
 H         -75.361580     -202.540161      -71.243256
 H         -74.277992     -203.730347      -71.952560
 H         -77.104301     -206.191162      -70.702797
 H         -75.583138     -206.606186      -71.294907
 H         -74.938637     -203.054840      -69.103470
 H         -73.151794     -203.220978      -69.795296
 H         -75.650208     -206.629425      -68.678108
 H         -76.346176     -205.111755      -68.743141
 H         -73.834785     -205.287613      -68.318237
 H         -73.582268     -205.747772      -70.086617
