20
 generated by VMD
 C         -25.868248      -71.850494      -17.146908
 N         -26.677843      -72.461403      -16.603575
 H         -24.284847      -68.988228      -18.783798
 H         -25.204359      -71.046661      -17.686613
 C         -24.696348      -69.479691      -19.687342
 C         -24.115971      -70.714478      -20.301657
 C         -25.782507      -68.834618      -20.444641
 C         -25.107948      -71.543144      -21.143499
 C         -26.703848      -69.657150      -21.232819
 C         -26.087500      -70.669632      -22.069368
 H         -23.632521      -71.279823      -19.500303
 H         -23.214642      -70.236404      -20.914593
 H         -26.327744      -68.171425      -19.725773
 H         -25.310629      -68.072662      -21.167852
 H         -25.757324      -72.149986      -20.485840
 H         -24.609261      -72.227051      -21.830524
 H         -27.229818      -68.987976      -21.974895
 H         -27.615873      -69.968536      -20.595066
 H         -26.732430      -71.270882      -22.686836
 H         -25.469255      -70.084770      -22.748693
