20
 generated by VMD
 C         -19.577824      -58.323059      -17.177126
 N         -19.261604      -58.736797      -18.202765
 H         -22.795818      -59.687664      -16.606277
 H         -20.044811      -57.780716      -16.216928
 C         -22.831972      -60.698322      -16.169054
 C         -23.748823      -61.545574      -17.054262
 C         -22.458178      -61.181568      -14.832121
 C         -23.366644      -63.052990      -16.863121
 C         -22.042786      -62.636600      -14.900739
 C         -23.138664      -63.513855      -15.403538
 H         -23.762461      -61.299107      -18.135777
 H         -24.781546      -61.329540      -16.756403
 H         -21.623423      -60.653053      -14.528131
 H         -23.305401      -60.922249      -14.206928
 H         -22.426712      -63.183300      -17.376051
 H         -24.048494      -63.668072      -17.346966
 H         -21.740948      -62.962704      -13.925916
 H         -21.199924      -62.765316      -15.606060
 H         -22.883677      -64.582855      -15.390901
 H         -24.051249      -63.386280      -14.788420
