20
 generated by VMD
 C         -47.775112     -136.539215      -45.935108
 N         -46.915672     -136.053360      -46.502182
 H         -51.219288     -135.322205      -45.834148
 H         -48.698658     -136.991699      -45.726181
 C         -51.611088     -136.236038      -45.345051
 C         -52.201317     -137.399902      -46.077637
 C         -51.832802     -136.208099      -43.876831
 C         -51.965954     -138.811859      -45.385067
 C         -51.542892     -137.631195      -43.192684
 C         -52.301792     -138.695068      -43.890308
 H         -51.726555     -137.561401      -47.125137
 H         -53.233627     -137.177216      -46.122139
 H         -51.129093     -135.549271      -43.411301
 H         -52.831017     -135.914719      -43.634174
 H         -50.878792     -138.999146      -45.419586
 H         -52.323910     -139.594360      -46.051735
 H         -51.974010     -137.639664      -42.100227
 H         -50.508991     -137.706604      -43.045143
 H         -52.145523     -139.695129      -43.453850
 H         -53.462368     -138.533905      -43.731754
