20
 generated by VMD
 C         -78.103043     -204.238007      -69.547501
 N         -79.043961     -203.704208      -69.993256
 H         -76.178535     -203.054337      -67.827744
 H         -77.268471     -204.731308      -69.141090
 C         -75.517868     -202.529694      -68.620613
 C         -75.736572     -201.173172      -69.311829
 C         -74.228020     -203.136612      -68.926903
 C         -74.812691     -201.018982      -70.674820
 C         -73.082901     -202.415253      -69.545074
 C         -73.360863     -201.265427      -70.456741
 H         -75.581276     -200.431747      -68.547310
 H         -76.839592     -201.144318      -69.647179
 H         -73.923996     -203.723358      -68.073883
 H         -74.443985     -204.031815      -69.519073
 H         -74.892944     -199.975845      -70.966713
 H         -75.163414     -201.617630      -71.484016
 H         -72.508850     -203.208328      -70.095306
 H         -72.289001     -202.127502      -68.740662
 H         -72.957108     -200.216797      -69.935684
 H         -72.759254     -201.347473      -71.365112
