20
 generated by VMD
 C         -67.474655     -192.562347      -67.012894
 N         -68.630486     -192.726151      -66.829926
 H         -69.798058     -190.160889      -65.192451
 H         -66.429749     -192.270111      -67.049072
 C         -70.867027     -190.166412      -65.098709
 C         -71.705811     -190.850906      -66.222855
 C         -71.607101     -189.764740      -63.849388
 C         -72.553192     -191.930542      -65.657249
 C         -73.096779     -189.996613      -64.043587
 C         -73.394829     -191.448502      -64.469360
 H         -71.101173     -191.392517      -66.994682
 H         -72.222679     -190.065506      -66.931892
 H         -71.226837     -190.322937      -62.987522
 H         -71.561760     -188.700638      -63.560532
 H         -72.017990     -192.823730      -65.349983
 H         -73.267822     -192.053955      -66.515938
 H         -73.583542     -189.352203      -64.842201
 H         -73.674133     -189.701920      -63.149281
 H         -73.119896     -192.298782      -63.728210
 H         -74.389183     -191.517685      -64.787415
