20
 generated by VMD
 C         -47.938183     -134.801239      -46.472847
 N         -47.871754     -134.532867      -47.649513
 H         -50.698288     -134.567871      -45.091400
 H         -47.721844     -134.830093      -45.387100
 C         -50.784836     -135.488831      -44.590130
 C         -51.257324     -136.685425      -45.301907
 C         -51.200253     -135.246613      -43.195717
 C         -51.211308     -137.901657      -44.464355
 C         -50.999149     -136.535492      -42.337738
 C         -51.677349     -137.724686      -42.998005
 H         -50.745926     -136.761154      -46.337234
 H         -52.292210     -136.601837      -45.504711
 H         -50.527885     -134.642670      -42.668720
 H         -52.181194     -134.825058      -43.193050
 H         -50.187840     -138.274628      -44.605175
 H         -51.845299     -138.661545      -44.958477
 H         -51.473782     -136.256683      -41.306286
 H         -49.916718     -136.818726      -42.173954
 H         -51.383034     -138.595367      -42.585411
 H         -52.705677     -137.604706      -42.912430
