20
 generated by VMD
 C         -40.769817     -102.294701      -35.093681
 N         -41.606346     -102.164032      -35.884293
 H         -39.941776     -104.620796      -32.124027
 H         -40.304897     -102.376320      -34.157574
 C         -38.812241     -104.753387      -31.911549
 C         -37.862751     -104.119125      -32.716198
 C         -38.340168     -106.002167      -31.166874
 C         -36.487919     -103.750290      -32.121586
 C         -37.056450     -105.635513      -30.368845
 C         -35.947956     -105.025459      -31.330597
 H         -38.298626     -103.224319      -33.264809
 H         -37.892597     -104.867577      -33.516178
 H         -39.157440     -106.281540      -30.412855
 H         -38.319786     -106.770927      -31.843237
 H         -36.499073     -102.869301      -31.498394
 H         -35.773605     -103.504562      -32.890743
 H         -36.634487     -106.555351      -29.913742
 H         -37.242012     -104.917656      -29.597265
 H         -35.053276     -104.736259      -30.758289
 H         -35.518806     -105.769020      -32.070126
