20
 generated by VMD
 C         -31.845119      -76.148949      -24.329176
 N         -31.442904      -76.567390      -25.323610
 H         -29.569754      -77.482307      -22.434967
 H         -32.501179      -75.840355      -23.583303
 C         -28.582401      -77.940971      -22.178930
 C         -27.570036      -78.149292      -23.298229
 C         -28.434961      -78.401176      -20.812040
 C         -26.160191      -77.909782      -22.779257
 C         -26.909781      -78.229965      -20.409018
 C         -25.913334      -78.791573      -21.533102
 H         -27.749052      -77.453537      -24.067772
 H         -27.649900      -79.225899      -23.468872
 H         -28.974821      -77.775826      -20.116625
 H         -28.786203      -79.482407      -20.844635
 H         -26.076143      -76.822914      -22.565386
 H         -25.356903      -78.041634      -23.494225
 H         -26.659983      -78.656441      -19.437876
 H         -26.799612      -77.251930      -20.283468
 H         -24.941559      -78.780350      -21.137514
 H         -26.030470      -79.894081      -21.714037
