20
 generated by VMD
 C         -28.280104      -82.379349      -26.637276
 N         -27.458565      -83.068634      -27.077068
 H         -31.415644      -84.031723      -26.447260
 H         -29.141792      -81.762611      -26.388380
 C         -31.487522      -84.808517      -25.745796
 C         -31.054394      -84.622116      -24.344688
 C         -32.182922      -86.071945      -26.195374
 C         -32.100182      -85.121384      -23.400526
 C         -33.083492      -86.637909      -25.149069
 C         -32.375565      -86.571190      -23.735550
 H         -30.639856      -83.596840      -24.126474
 H         -30.262341      -85.252426      -24.039732
 H         -32.777790      -85.997131      -27.126827
 H         -31.292130      -86.702080      -26.285990
 H         -33.056343      -84.464195      -23.345768
 H         -31.682341      -84.997047      -22.364635
 H         -33.233349      -87.649590      -25.417408
 H         -34.063580      -86.137779      -25.082361
 H         -33.269520      -86.843987      -23.021732
 H         -31.492702      -87.271881      -23.649773
