20
 generated by VMD
 C          -3.448042      -17.376913        2.261933
 N          -3.218506      -18.402613        1.896536
 H          -5.572729      -20.246607        0.627370
 H          -5.979411      -20.812107       -0.965693
 C          -6.072064      -19.943495       -0.288218
 C          -5.376367      -18.733820       -0.777791
 C          -7.547812      -19.798817        0.005587
 C          -6.183825      -18.176928       -2.005616
 C          -8.305970      -19.449429       -1.222905
 C          -7.684318      -18.150991       -1.742975
 H          -4.369939      -19.039377       -1.052416
 H          -5.352835      -17.926533       -0.058860
 H          -7.874181      -20.835001        0.351400
 H          -7.648654      -19.011345        0.766354
 H          -5.975201      -18.908958       -2.883851
 H          -5.843270      -17.149744       -2.201936
 H          -9.369646      -19.236174       -0.994276
 H          -8.242999      -20.286566       -1.977074
 H          -8.290205      -17.733297       -2.555756
 H          -7.846832      -17.473043       -0.915886
