20
 generated by VMD
 C         -62.548904     -173.952393      -55.288696
 N         -63.651211     -174.141357      -55.154087
 H         -62.550152     -172.557739      -58.035408
 H         -61.486942     -173.785721      -55.334934
 C         -63.093849     -171.626160      -58.253761
 C         -62.892796     -170.271866      -57.582264
 C         -64.086159     -171.995804      -59.436401
 C         -63.780716     -169.130753      -58.301304
 C         -64.651794     -170.707077      -60.082462
 C         -64.976852     -169.621475      -59.094036
 H         -61.861629     -169.906586      -57.612278
 H         -63.210766     -170.250259      -56.472485
 H         -63.690693     -172.493103      -60.241081
 H         -64.955063     -172.422592      -58.986122
 H         -63.172188     -168.451996      -58.983276
 H         -64.192009     -168.422684      -57.423698
 H         -65.519646     -170.942902      -60.687248
 H         -63.952393     -170.371536      -60.773510
 H         -65.411865     -168.741516      -59.595482
 H         -65.758415     -169.952805      -58.398800
