20
 generated by VMD
 C         -50.421452     -129.502243      -43.503338
 N         -50.830910     -129.659164      -44.551815
 H         -49.073376     -127.852203      -40.593128
 H         -49.841946     -129.262222      -42.661678
 C         -47.989323     -128.122559      -40.709507
 C         -47.564365     -129.595428      -40.652191
 C         -46.905418     -127.051140      -40.702553
 C         -46.367645     -129.855774      -41.520271
 C         -45.709530     -127.420517      -41.581440
 C         -45.288418     -128.792679      -41.417709
 H         -48.453781     -130.116501      -40.944618
 H         -47.303223     -129.944839      -39.640629
 H         -47.333168     -126.095634      -41.037949
 H         -46.528816     -126.962021      -39.615349
 H         -46.570042     -130.082321      -42.555191
 H         -45.881752     -130.738281      -41.082306
 H         -45.026314     -126.652908      -41.370670
 H         -45.902409     -127.206810      -42.563637
 H         -44.464424     -129.104050      -42.015434
 H         -44.778873     -128.828415      -40.446156
