20
 generated by VMD
 C         -49.655537     -131.788589      -46.552685
 N         -50.120190     -132.571762      -47.329029
 H         -47.670277     -133.100510      -44.049316
 H         -49.156857     -130.848892      -46.218895
 C         -48.586189     -133.443863      -43.605824
 C         -49.456696     -134.625809      -43.990601
 C         -49.106541     -132.653351      -42.443691
 C         -49.539974     -135.584564      -42.864204
 C         -49.157726     -133.567856      -41.223610
 C         -49.960178     -134.852371      -41.551743
 H         -48.881237     -135.030258      -44.925827
 H         -50.443676     -134.307297      -44.291042
 H         -48.424416     -131.797150      -42.316555
 H         -50.038105     -132.233749      -42.560600
 H         -48.651543     -136.092300      -42.564354
 H         -50.249733     -136.377808      -43.115276
 H         -49.767380     -133.199051      -40.429775
 H         -48.080013     -133.790848      -40.881680
 H         -49.766396     -135.546112      -40.703274
 H         -51.061550     -134.593842      -41.450474
