20
 generated by VMD
 C         -20.185284      -56.149929      -16.734417
 N         -21.306747      -56.249470      -16.881567
 H         -22.470657      -59.107807      -17.144049
 H         -19.009075      -56.058037      -16.740263
 C         -22.365122      -59.822136      -16.334570
 C         -22.366219      -59.213058      -14.870068
 C         -21.936697      -61.195633      -16.501366
 C         -21.274052      -59.750797      -13.984330
 C         -20.695383      -61.493942      -15.646199
 C         -21.036819      -61.173607      -14.154247
 H         -23.275400      -59.549862      -14.406124
 H         -22.516338      -58.108994      -14.740440
 H         -22.727755      -61.939827      -16.326818
 H         -21.623848      -61.315628      -17.557343
 H         -21.435915      -59.481499      -12.940548
 H         -20.301897      -59.325378      -14.389422
 H         -19.855251      -60.857594      -15.937052
 H         -20.178513      -62.416340      -15.814530
 H         -21.949158      -61.717342      -13.962501
 H         -20.246742      -61.458172      -13.395017
