20
 generated by VMD
 C         -68.456848     -192.862198      -66.219635
 N         -68.406349     -193.246918      -67.288567
 H         -70.039154     -189.670166      -65.365746
 H         -68.490593     -192.612701      -65.157188
 C         -70.916061     -190.261200      -65.267654
 C         -71.616714     -190.940430      -66.448463
 C         -71.535080     -190.502045      -63.893806
 C         -72.591263     -191.962357      -66.079613
 C         -73.133415     -190.540817      -63.992031
 C         -73.613205     -191.630188      -65.014381
 H         -70.857483     -191.392715      -67.213943
 H         -72.130600     -190.244125      -67.039093
 H         -71.150963     -191.463943      -63.410065
 H         -71.133377     -189.833069      -63.173061
 H         -72.067871     -192.730652      -65.508423
 H         -73.120438     -192.263535      -66.964478
 H         -73.455536     -189.554443      -64.305908
 H         -73.565361     -190.696808      -62.933987
 H         -73.906990     -192.521255      -64.553017
 H         -74.684158     -191.129013      -65.343735
