20
 generated by VMD
 C         -69.048241     -180.554443      -60.961292
 N         -69.764084     -181.253723      -60.395813
 H         -67.127342     -178.272812      -59.659035
 H         -68.297256     -179.979218      -61.544411
 C         -66.233658     -177.658951      -59.899174
 C         -65.888077     -177.743774      -61.325798
 C         -65.363586     -177.129517      -58.788803
 C         -65.032715     -176.575500      -61.734283
 C         -64.401581     -176.082565      -59.166767
 C         -63.869041     -176.261292      -60.643871
 H         -66.762787     -177.735107      -61.995922
 H         -65.273544     -178.679886      -61.537216
 H         -66.025574     -176.856918      -57.976131
 H         -64.866135     -178.044357      -58.402287
 H         -65.718430     -175.677673      -61.757847
 H         -64.843132     -176.571198      -62.764538
 H         -63.703957     -176.069794      -58.284351
 H         -64.920708     -175.098953      -59.100658
 H         -63.451500     -175.385025      -61.082523
 H         -63.226543     -177.148178      -60.712978
