20
 generated by VMD
 C         -25.649256      -71.412682      -16.848063
 N         -26.340908      -72.253105      -16.444403
 H         -24.203102      -69.234795      -18.597754
 H         -24.963209      -70.610313      -17.275988
 C         -24.751637      -69.488846      -19.500923
 C         -24.131477      -70.505669      -20.475954
 C         -25.829748      -68.545700      -20.227758
 C         -24.956121      -71.390678      -21.310675
 C         -26.794331      -69.411812      -21.161940
 C         -26.013624      -70.554268      -22.022383
 H         -23.338484      -70.934464      -19.861092
 H         -23.513079      -69.886978      -21.127134
 H         -26.362417      -67.983604      -19.458317
 H         -25.324961      -67.864944      -20.803940
 H         -25.457939      -72.178146      -20.734726
 H         -24.364651      -71.892059      -22.167280
 H         -27.400663      -68.759529      -21.821783
 H         -27.342110      -69.984596      -20.384604
 H         -26.717852      -71.163765      -22.627790
 H         -25.531424      -69.911171      -22.796888
