20
 generated by VMD
 C         -50.291115     -145.221832      -45.047859
 N         -49.874935     -144.703461      -44.070240
 H         -52.930542     -143.144745      -45.821320
 H         -50.496498     -145.723022      -46.016918
 C         -53.441189     -142.903870      -46.735600
 C         -52.496353     -142.852997      -48.078617
 C         -54.677231     -142.063583      -46.809048
 C         -53.350250     -143.083710      -49.357071
 C         -55.400249     -142.271301      -48.173889
 C         -54.565369     -142.085007      -49.414452
 H         -51.671917     -143.620193      -48.151001
 H         -52.187992     -141.815018      -48.070053
 H         -55.359520     -142.452728      -46.067535
 H         -54.433865     -141.097580      -46.474213
 H         -53.707752     -144.161453      -49.270466
 H         -52.843014     -142.981430      -50.347652
 H         -56.091034     -141.445114      -48.217411
 H         -55.932377     -143.165558      -48.202435
 H         -55.044426     -142.477631      -50.327221
 H         -54.223511     -141.031723      -49.513184
