20
 generated by VMD
 C          -2.415165       -9.790956       -0.011852
 N          -2.142887       -8.783175        0.361829
 H          -2.028524      -11.227267        2.555440
 H          -2.495406      -11.869243        4.126689
 C          -2.777974      -11.951758        3.030637
 C          -2.506341      -13.323337        2.392540
 C          -4.217280      -11.532543        2.961901
 C          -3.542740      -14.401721        2.833761
 C          -5.240822      -12.622615        3.503261
 C          -4.956019      -13.886268        2.629569
 H          -1.514003      -13.680484        2.600236
 H          -2.504249      -13.240248        1.289891
 H          -4.368975      -10.646577        3.536865
 H          -4.518304      -11.424476        1.942924
 H          -3.379564      -14.781202        3.847589
 H          -3.453924      -15.338244        2.248169
 H          -6.246217      -12.213237        3.439872
 H          -5.046715      -12.812877        4.577055
 H          -5.657228      -14.693599        2.886944
 H          -5.140088      -13.635963        1.532034
