20
 generated by VMD
 C          -1.673993      -14.085052        2.219573
 N          -1.890462      -13.757657        1.171028
 H          -3.796734      -16.984917        1.325066
 H          -4.067329      -17.158861       -0.327736
 C          -4.612800      -17.026114        0.614918
 C          -5.354110      -15.708006        0.661597
 C          -5.518678      -18.229700        0.889466
 C          -6.646904      -15.634944       -0.102471
 C          -6.770530      -18.158211        0.010445
 C          -7.536856      -16.869438        0.227467
 H          -4.610543      -15.008077        0.250185
 H          -5.470766      -15.435876        1.694572
 H          -5.046679      -19.204527        0.906249
 H          -5.771736      -18.250444        1.912928
 H          -6.455821      -15.737018       -1.217605
 H          -7.260340      -14.760080        0.131409
 H          -7.511977      -18.969141        0.349165
 H          -6.480245      -18.352594       -1.046458
 H          -8.478107      -16.878325       -0.330037
 H          -7.757394      -16.755991        1.303764
