20
 generated by VMD
 C         -68.426323     -185.548508      -66.160828
 N         -69.135780     -186.003693      -66.953934
 H         -69.429230     -183.118561      -63.754494
 H         -67.824211     -185.132462      -65.309639
 C         -69.238861     -183.835373      -63.029976
 C         -70.340012     -184.646194      -62.463062
 C         -67.963608     -183.724411      -62.234718
 C         -69.870285     -185.952057      -61.657467
 C         -67.732658     -184.732391      -61.047974
 C         -68.407349     -186.083130      -61.439659
 H         -70.996376     -184.920441      -63.267189
 H         -70.855385     -183.905823      -61.813320
 H         -67.180649     -184.023071      -62.875401
 H         -67.824417     -182.695282      -61.877354
 H         -70.468452     -186.764954      -62.135071
 H         -70.211578     -185.898621      -60.590427
 H         -68.184135     -184.414154      -60.029217
 H         -66.686943     -184.632172      -60.764133
 H         -67.848915     -186.464828      -62.337673
 H         -68.354568     -186.792435      -60.567043
