20
 generated by VMD
 C         -30.697535      -78.250114      -25.173319
 N         -31.384113      -77.314018      -25.026203
 H         -29.136223      -76.921028      -22.553804
 H         -30.060938      -79.178612      -24.964533
 C         -28.772465      -77.914391      -22.587923
 C         -27.504881      -78.200981      -23.283854
 C         -29.459789      -79.124832      -21.944044
 C         -26.511177      -79.011383      -22.462002
 C         -28.379219      -80.032860      -21.210953
 C         -27.177347      -80.263824      -22.018265
 H         -27.045034      -77.255775      -23.455343
 H         -27.758753      -78.702187      -24.223007
 H         -30.117935      -78.681084      -21.250381
 H         -30.099215      -79.551910      -22.690199
 H         -26.149542      -78.390137      -21.584114
 H         -25.558956      -79.275070      -22.937643
 H         -28.890789      -81.014671      -21.006292
 H         -28.210657      -79.554131      -20.249424
 H         -26.392059      -80.799797      -21.320736
 H         -27.337410      -81.005417      -22.826628
