20
 generated by VMD
 C         -27.781332      -72.652763      -17.974430
 N         -28.061369      -73.544594      -17.297754
 H         -24.520889      -70.886360      -18.752064
 H         -27.208178      -71.839516      -18.560850
 C         -25.042356      -71.074509      -19.729193
 C         -24.435446      -72.135658      -20.522505
 C         -25.763105      -69.967049      -20.498232
 C         -25.297459      -72.622124      -21.601452
 C         -26.435980      -70.425301      -21.797682
 C         -25.703411      -71.500450      -22.512329
 H         -24.135256      -73.008202      -19.819918
 H         -23.439495      -71.701096      -20.902939
 H         -26.507004      -69.470467      -19.878723
 H         -24.993610      -69.221962      -20.768827
 H         -26.199051      -73.167686      -21.214365
 H         -24.648745      -73.312866      -22.172432
 H         -26.494991      -69.553787      -22.488138
 H         -27.351681      -70.995979      -21.592152
 H         -26.083435      -71.897026      -23.514751
 H         -24.773825      -70.982979      -22.830330
