20
 generated by VMD
 C          -1.635861       -9.434555       -0.104246
 N          -2.573437       -8.962584        0.365197
 H          -2.182840      -10.798126        2.511531
 H          -2.310404      -11.747646        3.892661
 C          -2.773907      -11.590822        2.949605
 C          -2.728105      -12.805058        2.127793
 C          -4.277926      -11.332537        3.353495
 C          -3.328908      -14.062323        2.723076
 C          -4.922978      -12.552458        3.929949
 C          -4.787120      -13.750510        3.015343
 H          -1.683280      -13.018738        1.879454
 H          -3.216355      -12.591004        1.134812
 H          -4.259402      -10.462959        4.038650
 H          -4.746380      -11.071674        2.340350
 H          -2.721739      -14.494341        3.570418
 H          -3.319469      -14.830712        1.944262
 H          -5.974081      -12.299374        4.068148
 H          -4.505019      -12.855118        4.914008
 H          -5.246850      -14.593110        3.531039
 H          -5.315748      -13.559052        2.102185
