20
 generated by VMD
 C         -76.865852     -203.352768      -66.763016
 N         -77.614494     -203.949738      -66.073265
 H         -75.374176     -200.686707      -68.187637
 H         -76.062157     -202.772217      -67.118225
 C         -74.719139     -200.062317      -68.825577
 C         -74.791618     -198.584167      -68.744835
 C         -73.797752     -200.606171      -69.835960
 C         -73.502014     -197.723862      -68.915337
 C         -73.030205     -199.595490      -70.716370
 C         -72.838875     -198.166534      -70.370735
 H         -75.226883     -198.337463      -67.687408
 H         -75.549644     -198.218735      -69.449799
 H         -72.996651     -201.259918      -69.521591
 H         -74.471794     -201.200195      -70.524872
 H         -72.896172     -198.029205      -68.081474
 H         -73.663483     -196.646133      -68.988060
 H         -73.401367     -199.651718      -71.741661
 H         -72.078064     -200.117752      -70.972099
 H         -71.787041     -197.856003      -70.298401
 H         -73.305717     -197.522766      -71.051651
