20
 generated by VMD
 C         -28.340153      -87.011581      -27.068594
 N         -27.587175      -87.026917      -26.176567
 H         -31.114851      -88.208199      -25.149622
 H         -28.969864      -87.092255      -28.040243
 C         -32.054981      -88.158890      -25.694508
 C         -33.301746      -88.358833      -24.835180
 C         -32.322849      -88.348816      -27.160259
 C         -34.593815      -87.688797      -25.315643
 C         -33.505547      -87.438393      -27.551731
 C         -34.768082      -87.893486      -26.778931
 H         -32.862011      -88.086212      -23.805103
 H         -33.554127      -89.389587      -24.562422
 H         -31.382030      -87.995178      -27.686445
 H         -32.360878      -89.418907      -27.378950
 H         -34.462658      -86.667732      -25.118568
 H         -35.402023      -88.223831      -24.799480
 H         -33.666168      -87.391502      -28.607559
 H         -33.522243      -86.364197      -27.168272
 H         -35.667820      -87.344955      -27.203251
 H         -34.903824      -89.044899      -27.103790
