20
 generated by VMD
 C         -38.269382     -110.358185      -36.135120
 N         -37.737713     -109.357079      -36.289383
 H         -40.284576     -113.707764      -35.840313
 H         -38.615166     -111.338745      -36.171417
 C         -41.136745     -113.126114      -35.919056
 C         -42.241291     -113.856682      -36.657597
 C         -41.547291     -111.976921      -34.990833
 C         -43.401585     -114.225723      -35.740173
 C         -42.599434     -112.446564      -34.185349
 C         -43.818546     -112.931900      -34.930420
 H         -41.901665     -114.680145      -37.318302
 H         -42.714809     -113.194275      -37.315052
 H         -40.624641     -111.685822      -34.553764
 H         -41.731903     -111.251907      -35.809559
 H         -43.169643     -115.042076      -35.135845
 H         -44.244370     -114.401917      -36.443291
 H         -43.055977     -111.671616      -33.448051
 H         -42.228104     -113.279732      -33.490894
 H         -44.697750     -113.183838      -34.361210
 H         -44.150936     -112.131142      -35.581150
