20
 generated by VMD
 C         -30.573023      -93.396584      -25.137777
 N         -29.535814      -93.856880      -25.446474
 H         -33.781342      -91.823891      -26.476395
 H         -31.573025      -93.055664      -24.965666
 C         -34.123238      -91.642441      -27.443653
 C         -35.432030      -92.245888      -27.800808
 C         -33.385441      -91.083313      -28.542942
 C         -36.271389      -91.427940      -28.766790
 C         -34.197109      -90.327614      -29.636921
 C         -35.476097      -91.097313      -30.049114
 H         -36.108238      -92.527779      -26.902205
 H         -35.036892      -93.199280      -28.245012
 H         -32.604488      -90.451546      -28.116848
 H         -33.006847      -91.986389      -29.147072
 H         -36.498245      -90.447632      -28.248114
 H         -37.219524      -91.907661      -29.010971
 H         -33.587162      -90.185501      -30.557198
 H         -34.612663      -89.412033      -29.356722
 H         -36.207844      -90.568459      -30.749022
 H         -35.020775      -91.942703      -30.685135
