20
 generated by VMD
 C         -19.997044      -50.083897       -9.573662
 N         -19.792356      -51.240494       -9.650770
 H         -16.809793      -48.210342       -9.881730
 H         -20.480501      -49.051575       -9.861489
 C         -16.869162      -48.516201      -10.975032
 C         -15.877405      -49.473537      -11.587095
 C         -17.320429      -47.558125      -11.994300
 C         -15.994682      -49.992847      -13.069900
 C         -17.900276      -48.294506      -13.247803
 C         -16.808226      -49.084171      -14.002163
 H         -15.758842      -50.359985      -10.981018
 H         -14.957781      -48.838223      -11.537423
 H         -18.126923      -46.938187      -11.518035
 H         -16.501104      -46.825615      -12.202451
 H         -16.557693      -50.914051      -13.000645
 H         -14.980042      -50.111485      -13.466900
 H         -18.233278      -47.541294      -13.866263
 H         -18.702280      -49.042221      -12.951307
 H         -17.173717      -49.643757      -14.898148
 H         -16.057564      -48.370850      -14.391396
