20
 generated by VMD
 C         -47.356869     -139.011108      -45.709225
 N         -46.849377     -138.578766      -46.605888
 H         -50.791241     -138.526443      -44.648727
 H         -47.806347     -139.293030      -44.805950
 C         -51.710487     -138.861969      -45.106575
 C         -51.862652     -139.170593      -46.548557
 C         -52.917820     -138.443924      -44.389545
 C         -52.945980     -140.126297      -46.794651
 C         -54.067451     -139.413513      -44.665565
 C         -54.214775     -139.693100      -46.143707
 H         -50.910374     -139.512054      -47.021690
 H         -52.229118     -138.248199      -47.098392
 H         -52.721260     -138.335739      -43.376915
 H         -53.225975     -137.500351      -44.701580
 H         -52.432587     -141.046570      -46.431892
 H         -53.151409     -140.245834      -47.919350
 H         -54.980793     -138.819229      -44.240612
 H         -53.979805     -140.358154      -44.136982
 H         -54.992844     -140.453461      -46.265644
 H         -54.698467     -138.964523      -46.624481
