20
 generated by VMD
 C         -39.770550     -100.992287      -31.378120
 N         -40.496498     -100.134354      -31.246668
 H         -37.443726     -103.435875      -31.547838
 H         -39.030560     -101.829796      -31.327681
 C         -37.053810     -102.460892      -31.434662
 C         -36.321278     -101.785812      -32.663910
 C         -36.442371     -102.006851      -30.090977
 C         -35.789150     -100.342934      -32.584145
 C         -36.185246     -100.529068      -30.075989
 C         -35.154381     -100.046806      -31.249294
 H         -37.022697     -101.783493      -33.498299
 H         -35.462360     -102.398239      -33.072868
 H         -37.223667     -102.203484      -29.256006
 H         -35.540176     -102.563766      -29.965090
 H         -36.558651      -99.576881      -32.760780
 H         -35.068493     -100.022568      -33.328487
 H         -35.946674     -100.139999      -29.084795
 H         -37.172768      -99.999649      -30.383419
 H         -34.979717      -98.983017      -31.156912
 H         -34.209755     -100.529709      -31.169395
