20
 generated by VMD
 C         -79.577759     -205.361481      -71.780014
 N         -79.757851     -206.510086      -71.618706
 H         -77.023781     -204.149139      -71.804909
 H         -79.425713     -204.330124      -71.788940
 C         -76.394524     -204.176437      -70.897980
 C         -75.323166     -203.210754      -71.024803
 C         -76.429024     -205.569153      -70.283188
 C         -74.293427     -203.417816      -69.934967
 C         -75.356049     -205.565063      -69.159882
 C         -74.062729     -204.905289      -69.746925
 H         -75.575432     -202.177429      -71.023277
 H         -74.759552     -203.392334      -72.009285
 H         -77.376244     -205.938965      -70.026596
 H         -75.955551     -206.222397      -70.983276
 H         -74.547592     -202.967911      -68.980247
 H         -73.280548     -203.061768      -70.208458
 H         -75.020706     -206.502518      -68.775940
 H         -75.879387     -205.036041      -68.282997
 H         -73.171745     -205.055069      -69.106361
 H         -73.848824     -205.390579      -70.788994
