20
 generated by VMD
 C         -20.346703      -57.254028      -16.707439
 N         -19.531164      -56.458279      -16.693483
 H         -22.866550      -60.071800      -17.756294
 H         -20.903858      -58.179100      -16.576750
 C         -22.548931      -60.570564      -16.932077
 C         -23.578030      -60.675438      -15.896733
 C         -21.234919      -61.245266      -16.764807
 C         -22.891066      -60.677692      -14.446798
 C         -21.036695      -62.040188      -15.516349
 C         -22.062845      -61.930080      -14.359994
 H         -24.134020      -61.579773      -16.151644
 H         -24.384813      -59.936974      -15.997741
 H         -21.006876      -61.872395      -17.649023
 H         -20.508142      -60.424671      -16.758301
 H         -23.698223      -60.651211      -13.691292
 H         -22.159925      -59.791759      -14.382032
 H         -19.934877      -62.082611      -15.262403
 H         -21.068403      -63.107887      -15.750288
 H         -22.795422      -62.738518      -14.485997
 H         -21.564713      -62.058369      -13.406516
