20
 generated by VMD
 C         -41.978809     -101.499878      -32.993305
 N         -41.255184     -101.624321      -33.888309
 H         -38.829170     -103.288010      -32.538944
 H         -42.589413     -101.235588      -32.201099
 C         -37.793346     -103.460663      -32.226330
 C         -36.644966     -103.389748      -33.035633
 C         -37.685760     -103.704308      -30.697224
 C         -35.620838     -102.501015      -32.359623
 C         -36.396564     -103.083862      -30.088211
 C         -35.201195     -103.088989      -31.005396
 H         -36.783371     -103.004524      -34.012917
 H         -36.169682     -104.372124      -33.075264
 H         -38.400902     -103.134300      -30.117180
 H         -37.649696     -104.785767      -30.371738
 H         -35.999966     -101.490845      -32.151897
 H         -34.689404     -102.433540      -32.999851
 H         -36.292553     -103.725044      -29.111216
 H         -36.561516     -102.091713      -29.715050
 H         -34.372589     -102.506432      -30.460661
 H         -34.910103     -104.094780      -31.125536
