20
 generated by VMD
 C         -40.955528     -104.229721      -36.449017
 N         -41.787479     -105.013100      -36.338223
 H         -38.635151     -104.636902      -33.801647
 H         -40.086517     -103.538857      -36.433079
 C         -38.452980     -105.505600      -33.112755
 C         -37.177818     -105.625931      -32.329830
 C         -39.380016     -106.695801      -33.356541
 C         -37.406586     -106.734840      -31.203325
 C         -39.483646     -107.654793      -32.176590
 C         -38.121586     -108.028107      -31.610453
 H         -36.876671     -104.735184      -31.783026
 H         -36.313633     -106.025940      -32.984821
 H         -40.403378     -106.389488      -33.530357
 H         -38.893024     -107.150673      -34.267563
 H         -38.036674     -106.287338      -30.396076
 H         -36.387112     -106.897102      -30.880314
 H         -40.109634     -108.405945      -32.450218
 H         -40.083893     -107.136032      -31.440798
 H         -38.179310     -108.771828      -30.757303
 H         -37.520206     -108.442856      -32.392529
