20
 generated by VMD
 C         -38.217812     -109.673096      -36.497498
 N         -37.556072     -108.993698      -35.861538
 H         -40.853596     -111.686272      -37.138397
 H         -39.026806     -110.322746      -36.908939
 C         -41.308891     -111.952354      -36.165409
 C         -42.193726     -113.260345      -36.406258
 C         -41.870682     -110.950874      -35.193695
 C         -42.526840     -113.871826      -35.073433
 C         -42.160637     -111.608353      -33.833473
 C         -43.015285     -112.866592      -33.973923
 H         -41.518711     -114.016296      -36.853119
 H         -43.072910     -112.987022      -37.094971
 H         -41.297531     -110.010452      -34.941402
 H         -42.856529     -110.547813      -35.427563
 H         -41.514843     -114.326927      -34.695892
 H         -43.168766     -114.703163      -35.178040
 H         -42.561592     -110.815460      -33.136639
 H         -41.088379     -111.855240      -33.411526
 H         -43.079838     -113.454193      -33.019249
 H         -44.066254     -112.685928      -34.153374
