20
 generated by VMD
 C         -33.657001      -96.071877      -25.338894
 N         -33.815025      -96.991081      -26.022575
 H         -34.757282      -94.293549      -27.421894
 H         -33.595791      -95.227745      -24.770885
 C         -34.771454      -93.964996      -28.453932
 C         -36.090153      -94.329414      -29.219332
 C         -33.466061      -93.590919      -29.094856
 C         -36.160000      -93.565399      -30.536467
 C         -33.769562      -92.755241      -30.302496
 C         -34.825146      -93.351631      -31.221287
 H         -37.014023      -94.197784      -28.686119
 H         -35.995396      -95.452942      -29.401184
 H         -32.963615      -93.078667      -28.310726
 H         -32.784149      -94.420296      -29.351377
 H         -36.538746      -92.569496      -30.226030
 H         -36.953560      -93.980515      -31.229040
 H         -32.864944      -92.663994      -30.837910
 H         -34.103989      -91.665794      -30.142408
 H         -35.076809      -92.554832      -31.963530
 H         -34.604965      -94.332535      -31.679758
