20
 generated by VMD
 C         -41.985050     -101.728493      -33.580822
 N         -40.896885     -101.826546      -33.879772
 H         -38.898163     -103.646072      -32.847946
 H         -42.989880     -101.862747      -33.175217
 C         -38.064201     -103.649559      -32.235023
 C         -36.820724     -103.624596      -33.136715
 C         -37.860806     -104.161850      -30.839808
 C         -35.840370     -102.799477      -32.400066
 C         -36.610027     -103.694740      -30.118361
 C         -35.507236     -103.496765      -31.073423
 H         -36.922188     -103.250763      -34.195103
 H         -36.547546     -104.701431      -33.164841
 H         -38.740715     -103.876015      -30.285959
 H         -37.929588     -105.312340      -30.906063
 H         -36.144447     -101.787643      -32.138523
 H         -34.914719     -102.729469      -32.962440
 H         -36.386917     -104.337799      -29.237988
 H         -36.694016     -102.662369      -29.720541
 H         -34.733543     -102.845482      -30.608883
 H         -35.051537     -104.492500      -31.098539
