20
 generated by VMD
 C         -29.812788      -89.443970      -25.249601
 N         -29.145432      -89.732285      -26.126413
 H         -32.043732      -91.043152      -26.921940
 H         -30.570799      -89.121269      -24.589367
 C         -32.891300      -90.757790      -27.534786
 C         -34.272354      -91.133430      -27.053474
 C         -32.716118      -89.538910      -28.369610
 C         -35.073029      -89.897789      -26.646435
 C         -33.464958      -88.362518      -27.755642
 C         -34.983345      -88.735344      -27.719908
 H         -34.234077      -91.759529      -26.125551
 H         -34.876434      -91.747543      -27.768654
 H         -31.622005      -89.446266      -28.338139
 H         -33.058128      -89.681831      -29.394396
 H         -34.932850      -89.620232      -25.581928
 H         -36.142269      -90.104530      -26.716831
 H         -33.207047      -87.555901      -28.439711
 H         -33.195713      -87.970657      -26.739347
 H         -35.592484      -87.875389      -27.495417
 H         -35.268166      -88.997414      -28.625589
