20
 generated by VMD
 C         -57.938225     -166.395309      -56.303226
 N         -58.297226     -167.160370      -55.445099
 H         -60.795620     -165.600937      -54.570747
 H         -57.682076     -165.670059      -57.046406
 C         -61.594555     -165.570816      -55.306610
 C         -61.740765     -166.818512      -56.206795
 C         -62.395908     -164.397400      -55.572029
 C         -63.249382     -167.212906      -56.232403
 C         -63.921047     -164.856171      -55.518860
 C         -64.197601     -165.981888      -56.564026
 H         -60.968456     -167.561523      -55.733288
 H         -61.317970     -166.761932      -57.167980
 H         -62.189758     -163.801590      -54.746880
 H         -62.112957     -163.880295      -56.532810
 H         -63.484348     -167.490341      -55.212475
 H         -63.395206     -167.967438      -56.955658
 H         -64.668327     -164.066086      -55.522591
 H         -64.122185     -165.236969      -54.636108
 H         -65.220108     -166.475510      -56.467739
 H         -64.128113     -165.822647      -57.678757
