20
 generated by VMD
 C         -31.454689      -76.815590      -24.844843
 N         -32.032570      -77.019058      -25.837702
 H         -29.335897      -77.135254      -22.569004
 H         -31.276836      -76.639442      -23.782572
 C         -28.547028      -77.716751      -22.175039
 C         -27.480518      -77.988548      -23.185982
 C         -28.727182      -78.829750      -21.191647
 C         -26.210114      -78.581841      -22.678596
 C         -27.476240      -79.256584      -20.560593
 C         -26.371399      -79.640770      -21.592682
 H         -27.182114      -77.032791      -23.531757
 H         -27.875679      -78.506981      -24.058588
 H         -29.359324      -78.331429      -20.362982
 H         -29.217093      -79.648407      -21.680450
 H         -25.516735      -77.774956      -22.462475
 H         -25.699890      -79.098373      -23.521269
 H         -27.671368      -80.183746      -19.884111
 H         -27.036539      -78.469833      -19.893379
 H         -25.419497      -79.705956      -21.034218
 H         -26.620382      -80.543518      -22.060219
