20
 generated by VMD
 C         -44.174732     -121.732513      -35.917965
 N         -43.784637     -120.659256      -35.755600
 H         -44.958485     -122.536583      -39.489525
 H         -44.359005     -122.738762      -36.117058
 C         -44.761539     -121.469437      -39.655289
 C         -43.318005     -121.045479      -39.597507
 C         -45.920509     -120.620094      -39.020065
 C         -43.383656     -119.496948      -40.228775
 C         -45.749340     -119.148331      -39.455448
 C         -44.305748     -118.705162      -39.398819
 H         -42.629116     -121.654617      -40.260571
 H         -42.964550     -120.975227      -38.578762
 H         -46.934582     -120.998100      -39.203560
 H         -45.696991     -120.788239      -37.975281
 H         -43.700924     -119.474152      -41.269890
 H         -42.370960     -119.186028      -40.040791
 H         -46.409374     -118.633789      -38.882797
 H         -46.046272     -119.235878      -40.515469
 H         -44.124424     -117.641365      -39.757195
 H         -43.921673     -118.755127      -38.342495
