20
 generated by VMD
 C         -19.456579      -60.806637      -17.563957
 N         -20.119890      -59.891048      -17.747938
 H         -22.536388      -60.266659      -15.942989
 H         -18.825590      -61.733845      -17.569883
 C         -23.001587      -61.180893      -16.157965
 C         -23.204674      -61.774498      -17.598627
 C         -23.684292      -61.891270      -15.065645
 C         -22.928955      -63.272583      -17.584499
 C         -23.151266      -63.251480      -14.996530
 C         -23.324303      -64.038460      -16.293041
 H         -22.844046      -61.067570      -18.407969
 H         -24.375284      -61.659313      -17.676825
 H         -23.439285      -61.271194      -14.117990
 H         -24.797888      -61.813416      -15.106257
 H         -21.872786      -63.384064      -17.776081
 H         -23.396769      -63.774075      -18.387329
 H         -23.776842      -63.774719      -14.285582
 H         -22.111513      -63.250099      -14.641100
 H         -22.725279      -64.978348      -16.087317
 H         -24.379477      -64.443924      -16.343681
