20
 generated by VMD
 C         -68.729874     -188.347641      -66.846619
 N         -68.400314     -189.468384      -66.665894
 H         -68.276894     -187.497925      -63.065144
 H         -69.184746     -187.421402      -67.093346
 C         -69.245628     -187.824112      -63.368935
 C         -69.609535     -189.265808      -63.400719
 C         -70.449539     -186.908310      -63.081818
 C         -70.836334     -189.537872      -64.206490
 C         -71.790398     -187.285950      -63.714821
 C         -72.002701     -188.868332      -63.683514
 H         -69.792450     -189.679428      -62.369606
 H         -68.728569     -189.857864      -63.842999
 H         -70.590347     -186.729126      -62.034081
 H         -70.200500     -185.825424      -63.319565
 H         -71.034485     -190.635849      -64.082634
 H         -70.681511     -189.289856      -65.223419
 H         -71.852867     -187.073776      -64.798386
 H         -72.589554     -186.575150      -63.365540
 H         -72.270363     -189.024323      -62.627422
 H         -72.805779     -189.135178      -64.252533
