20
 generated by VMD
 C         -40.842014     -104.031303      -36.807262
 N         -41.283295     -104.958260      -36.261795
 H         -39.140427     -105.237976      -34.065529
 H         -40.575859     -103.145103      -37.359997
 C         -38.835011     -106.034767      -33.324471
 C         -37.595703     -105.973366      -32.622787
 C         -39.654526     -107.252632      -33.393833
 C         -37.629677     -106.746445      -31.222258
 C         -39.454205     -108.029839      -32.106274
 C         -38.071018     -108.202477      -31.489912
 H         -37.457439     -104.889175      -32.371853
 H         -36.820328     -106.352608      -33.329967
 H         -40.758900     -107.213982      -33.430721
 H         -39.425701     -107.734764      -34.310459
 H         -38.441601     -106.318016      -30.531330
 H         -36.568073     -106.661461      -30.759970
 H         -39.731255     -109.154671      -32.331154
 H         -40.137684     -107.842445      -31.274530
 H         -38.070633     -108.799271      -30.629778
 H         -37.454525     -108.782570      -32.304199
