20
 generated by VMD
 C         -41.537430     -119.772614      -34.221394
 N         -41.663235     -120.549408      -35.033306
 H         -43.347233     -118.720848      -37.022026
 H         -41.312073     -119.101883      -33.335850
 C         -43.898666     -118.483902      -37.987720
 C         -42.974182     -118.312767      -39.146336
 C         -45.267086     -117.878677      -37.799801
 C         -43.830502     -118.797600      -40.317009
 C         -45.973705     -118.121727      -39.115582
 C         -45.159336     -117.911972      -40.318840
 H         -42.190605     -119.082970      -39.049721
 H         -42.621922     -117.251320      -39.284813
 H         -45.689610     -118.402252      -36.887569
 H         -45.284740     -116.852852      -37.590042
 H         -44.035614     -119.840683      -40.310177
 H         -43.240440     -118.691139      -41.279793
 H         -46.776875     -117.465530      -39.229584
 H         -46.417931     -119.128700      -39.217789
 H         -45.645226     -118.190666      -41.272659
 H         -44.906208     -116.906036      -40.541851
