20
 generated by VMD
 C         -30.452072      -93.998108      -25.494751
 N         -29.510796      -93.637314      -24.939753
 H         -33.823246      -92.730705      -26.911499
 H         -31.417057      -94.418900      -25.980371
 C         -34.288460      -92.054062      -27.637169
 C         -35.761360      -92.186325      -27.811548
 C         -33.440449      -91.429115      -28.665131
 C         -36.345459      -91.474106      -28.970476
 C         -34.124409      -90.503937      -29.597620
 C         -35.525826      -91.030952      -30.169546
 H         -36.257671      -91.881958      -26.968828
 H         -35.802002      -93.234520      -27.919348
 H         -32.571579      -91.007912      -28.148239
 H         -33.059624      -92.241104      -29.228617
 H         -36.757626      -90.495819      -28.597204
 H         -37.245480      -92.002205      -29.359426
 H         -33.592262      -90.252823      -30.497852
 H         -34.346638      -89.537956      -29.041595
 H         -36.017525      -90.184280      -30.641329
 H         -35.266418      -91.810020      -30.932943
