20
 generated by VMD
 C         -22.840721      -68.483017      -16.626169
 N         -22.942396      -69.178528      -15.710710
 H         -24.203985      -65.870461      -18.869331
 H         -22.570705      -67.724579      -17.400200
 C         -24.596785      -66.808479      -19.328442
 C         -23.827805      -67.584099      -20.436562
 C         -26.079260      -67.014885      -18.926975
 C         -24.508137      -68.973763      -20.393137
 C         -26.626579      -68.384285      -19.217281
 C         -25.982260      -68.855186      -20.536608
 H         -22.648636      -67.597755      -20.317116
 H         -24.064526      -67.097961      -21.407953
 H         -26.230482      -66.832520      -17.876961
 H         -26.543976      -66.385963      -19.682734
 H         -24.176243      -69.401619      -19.507133
 H         -24.171768      -69.588127      -21.184067
 H         -27.633900      -68.244553      -19.523468
 H         -26.466553      -69.132965      -18.447962
 H         -26.539568      -69.819099      -20.856483
 H         -26.238722      -68.167671      -21.418467
