20
 generated by VMD
 C         -53.063667     -146.844467      -44.983658
 N         -52.040268     -147.114258      -44.464169
 H         -54.520943     -146.545074      -47.553787
 H         -53.964352     -146.485367      -45.398438
 C         -54.334629     -145.726562      -48.282578
 C         -53.124187     -145.552628      -49.116982
 C         -55.001457     -144.513489      -47.837624
 C         -53.419056     -144.678680      -50.203365
 C         -55.285408     -143.572968      -49.064812
 C         -54.016441     -143.385330      -49.841888
 H         -52.661968     -146.466766      -49.639538
 H         -52.321720     -145.159409      -48.538967
 H         -55.955608     -144.775772      -47.270851
 H         -54.422699     -143.858307      -47.023811
 H         -54.189690     -145.185730      -50.899857
 H         -52.557034     -144.445053      -50.982918
 H         -55.574600     -142.467560      -48.774025
 H         -56.126156     -143.973755      -49.662796
 H         -54.342403     -142.959091      -50.846523
 H         -53.313702     -142.662018      -49.303722
