20
 generated by VMD
 C         -41.093628     -104.601860      -35.992710
 N         -42.092632     -104.936623      -36.449818
 H         -38.179611     -104.116707      -33.313156
 H         -40.339142     -104.013885      -35.558556
 C         -38.196346     -105.039543      -32.741798
 C         -36.974770     -105.605576      -32.183605
 C         -39.099270     -106.157608      -33.362301
 C         -37.180908     -106.684013      -31.163326
 C         -39.434402     -107.138596      -32.337543
 C         -38.080070     -107.716347      -31.713747
 H         -36.443455     -104.901581      -31.601770
 H         -36.394779     -105.942726      -33.011475
 H         -39.972252     -105.701530      -33.745747
 H         -38.584465     -106.543411      -34.313492
 H         -37.564117     -106.080765      -30.279928
 H         -36.255424     -107.131676      -30.751179
 H         -40.135223     -107.845581      -32.766094
 H         -40.049557     -106.631241      -31.519396
 H         -38.329254     -108.354469      -30.783405
 H         -37.624527     -108.346405      -32.428612
