20
 generated by VMD
 C         -73.125099     -199.794250      -65.620750
 N         -73.912758     -200.531128      -65.216423
 H         -71.421181     -196.900009      -67.043449
 H         -72.389343     -199.246704      -66.230934
 C         -72.158081     -196.401352      -67.708282
 C         -73.279694     -195.591934      -67.140877
 C         -72.368469     -197.076797      -69.047684
 C         -74.248405     -195.114090      -68.227119
 C         -73.861557     -197.299194      -69.326355
 C         -74.892731     -196.300461      -69.013298
 H         -72.925247     -194.657211      -66.567871
 H         -73.686844     -196.399902      -66.475296
 H         -71.961678     -196.405167      -69.763237
 H         -71.819954     -197.961487      -69.064911
 H         -73.820000     -194.333313      -68.857422
 H         -75.070229     -194.578003      -67.687279
 H         -74.162170     -198.264435      -68.830154
 H         -73.981628     -197.485489      -70.365601
 H         -75.288902     -195.949631      -69.883438
 H         -75.637680     -196.808029      -68.287270
