20
 generated by VMD
 C         -59.914883     -153.000229      -51.108002
 N         -60.680019     -152.294098      -51.735020
 H         -57.026115     -153.426346      -49.457150
 H         -59.192585     -153.654022      -50.648388
 C         -56.208286     -152.770996      -49.752331
 C         -54.854530     -153.094543      -49.461639
 C         -56.470169     -151.394150      -50.278252
 C         -53.844948     -152.509857      -50.498878
 C         -55.583832     -150.817383      -51.289337
 C         -54.151337     -151.003372      -50.961903
 H         -54.684940     -154.146606      -49.589848
 H         -54.618275     -152.787445      -48.443199
 H         -57.543594     -151.406006      -50.654636
 H         -56.515041     -150.674210      -49.422886
 H         -53.918877     -153.249527      -51.343983
 H         -52.857624     -152.577545      -50.073730
 H         -55.723682     -149.840698      -51.497593
 H         -55.598831     -151.342453      -52.271366
 H         -53.511356     -150.691208      -51.714329
 H         -53.976715     -150.425705      -50.026699
