20
 generated by VMD
 C         -38.611668     -113.341454      -36.279778
 N         -37.449409     -113.407440      -36.100662
 H         -41.338650     -114.726013      -34.941227
 H         -39.649937     -113.395218      -36.446865
 C         -42.199326     -114.485298      -35.618420
 C         -42.163342     -114.706223      -37.148361
 C         -43.510712     -114.184059      -34.981846
 C         -43.463970     -115.017067      -37.890129
 C         -44.733234     -114.837418      -35.634354
 C         -44.699066     -114.522491      -37.203598
 H         -41.410984     -115.502411      -37.280159
 H         -41.596458     -113.752884      -37.473808
 H         -43.469776     -114.357147      -33.880001
 H         -43.830173     -113.095596      -35.006977
 H         -43.543640     -116.091293      -38.035294
 H         -43.338642     -114.571159      -38.885719
 H         -45.714985     -114.579643      -35.217678
 H         -44.676590     -115.896919      -35.394417
 H         -45.523129     -114.977325      -37.656147
 H         -44.696007     -113.475319      -37.176388
