20
 generated by VMD
 C         -49.326160     -141.326263      -45.779190
 N         -48.728832     -141.577545      -44.821762
 H         -51.620434     -138.360474      -46.057125
 H         -49.814842     -140.890411      -46.607944
 C         -52.203339     -139.289383      -46.331245
 C         -52.781281     -139.420929      -47.741482
 C         -52.848236     -140.008423      -45.134457
 C         -53.232918     -140.849030      -48.053413
 C         -53.257835     -141.342758      -45.577938
 C         -54.173759     -141.365295      -46.932465
 H         -52.138981     -139.088638      -48.572266
 H         -53.665363     -138.812637      -47.693443
 H         -52.064537     -140.018768      -44.357250
 H         -53.687408     -139.305496      -44.764637
 H         -52.192406     -141.368118      -48.018978
 H         -53.652756     -141.111526      -49.032124
 H         -53.749382     -141.878815      -44.743828
 H         -52.353001     -141.994553      -45.676136
 H         -54.417980     -142.366577      -47.038929
 H         -55.008034     -140.763824      -46.959419
