20
 generated by VMD
 C         -69.036377     -181.149384      -61.249187
 N         -69.911369     -180.575912      -60.781868
 H         -67.118782     -178.524826      -59.491837
 H         -68.108620     -181.558273      -61.661034
 C         -66.279854     -177.987564      -59.853352
 C         -65.752998     -178.252411      -61.151421
 C         -65.425911     -177.490875      -58.829876
 C         -65.041824     -177.072983      -61.722301
 C         -64.811081     -176.153137      -59.340099
 C         -64.081970     -176.409393      -60.726837
 H         -66.588882     -178.485641      -61.849964
 H         -65.013817     -179.141891      -61.170120
 H         -65.973160     -177.394913      -57.909935
 H         -64.630531     -178.302872      -58.668564
 H         -65.947411     -176.284744      -61.877419
 H         -64.784943     -177.227600      -62.784668
 H         -64.087013     -175.903946      -58.513470
 H         -65.536865     -175.296570      -59.341808
 H         -63.844437     -175.385925      -61.020771
 H         -63.092876     -176.985519      -60.572323
