20
 generated by VMD
 C         -38.742413     -108.565346      -36.789558
 N         -37.605133     -108.803596      -36.970272
 H         -41.720192     -109.699471      -36.251461
 H         -39.678894     -108.213394      -36.430355
 C         -41.468887     -110.105042      -35.300842
 C         -40.970402     -111.453102      -35.627918
 C         -42.548870     -110.064377      -34.273357
 C         -40.552715     -112.203773      -34.418423
 C         -42.033897     -110.675331      -33.001236
 C         -41.575996     -112.145454      -33.231659
 H         -40.033669     -111.334717      -36.137234
 H         -41.725807     -112.062279      -36.214878
 H         -42.778809     -109.024315      -34.031185
 H         -43.463501     -110.534584      -34.581818
 H         -39.617020     -111.705238      -34.254936
 H         -40.291454     -113.309288      -34.606186
 H         -42.729038     -110.549553      -32.195850
 H         -41.142101     -110.189499      -32.672478
 H         -41.074474     -112.532951      -32.205212
 H         -42.430084     -112.775253      -33.381775
