20
 generated by VMD
 C          -2.162722      -16.870308        2.844999
 N          -2.374915      -16.220257        1.967418
 H          -4.493110      -15.660748        0.081193
 H          -4.430120      -17.105827       -0.988000
 C          -5.046586      -16.563707       -0.285122
 C          -6.267306      -16.029667       -1.013347
 C          -5.418153      -17.628130        0.800721
 C          -7.373913      -17.011234       -1.309885
 C          -6.348031      -18.668432        0.271222
 C          -7.674163      -17.896368       -0.108921
 H          -5.962810      -15.421081       -1.845087
 H          -6.790061      -15.284631       -0.342133
 H          -4.444631      -17.937847        1.246397
 H          -5.850132      -17.041826        1.634880
 H          -7.287408      -17.513531       -2.223274
 H          -8.235673      -16.360416       -1.498745
 H          -6.595156      -19.368448        1.044896
 H          -6.023481      -19.272585       -0.600620
 H          -8.455573      -18.642977       -0.391308
 H          -8.052843      -17.387619        0.790009
