20
 generated by VMD
 C         -70.611252     -196.802216      -66.303574
 N         -69.763420     -196.162750      -65.823929
 H         -73.064308     -195.128571      -64.528656
 H         -71.344299     -197.391495      -66.763351
 C         -73.279015     -194.595367      -65.468391
 C         -72.391388     -193.510330      -66.008240
 C         -74.125092     -195.282028      -66.557304
 C         -73.069099     -192.737152      -67.277077
 C         -73.562569     -195.195190      -67.895309
 C         -73.426590     -193.749466      -68.401146
 H         -71.526848     -193.897141      -66.391785
 H         -72.239182     -192.681427      -65.221825
 H         -74.241356     -196.310287      -66.128189
 H         -75.166321     -194.996201      -66.356026
 H         -72.291328     -192.034988      -67.628052
 H         -73.984123     -192.209930      -66.970474
 H         -74.193565     -195.798340      -68.625511
 H         -72.588554     -195.629059      -67.944336
 H         -72.716812     -193.667664      -69.320251
 H         -74.330353     -193.383835      -68.748894
