20
 generated by VMD
 C         -19.824177      -51.102638      -10.322736
 N         -20.581419      -51.189381       -9.382934
 H         -17.468901      -48.922039      -10.256013
 H         -19.512676      -50.917915      -11.208900
 C         -17.242912      -49.059460      -11.274245
 C         -16.228178      -50.146366      -11.545012
 C         -17.318260      -47.795128      -12.141571
 C         -16.278965      -50.393509      -13.052734
 C         -17.712156      -48.302109      -13.553679
 C         -16.487478      -49.188007      -13.953822
 H         -16.589216      -51.073143      -11.053319
 H         -15.240891      -49.805733      -11.179072
 H         -18.159437      -47.182083      -11.819885
 H         -16.490004      -47.101406      -12.096770
 H         -17.214985      -51.031246      -13.182060
 H         -15.368271      -50.950203      -13.441470
 H         -17.807522      -47.432049      -14.154991
 H         -18.729818      -48.922050      -13.495795
 H         -16.623524      -49.533165      -15.016665
 H         -15.571903      -48.534664      -14.024925
