20
 generated by VMD
 C         -30.145897      -92.385986      -25.673904
 N         -29.370899      -92.337837      -24.847748
 H         -32.214176      -90.260506      -26.920744
 H         -30.801622      -92.301376      -26.599035
 C         -33.228790      -90.145271      -27.394791
 C         -34.088432      -91.368874      -27.185101
 C         -33.373634      -89.237457      -28.499163
 C         -35.511574      -91.235283      -27.710617
 C         -34.661121      -89.284050      -29.208521
 C         -35.477665      -90.657181      -29.165539
 H         -34.154331      -91.544441      -26.073694
 H         -33.461811      -92.169647      -27.585241
 H         -33.091743      -88.121788      -28.273321
 H         -32.587421      -89.533089      -29.253172
 H         -36.198200      -90.629814      -27.145788
 H         -36.006729      -92.237297      -27.776537
 H         -34.454472      -88.973885      -30.246218
 H         -35.311977      -88.571007      -28.680597
 H         -36.482502      -90.684975      -29.566467
 H         -34.898380      -91.377007      -29.679174
