20
 generated by VMD
 C         -59.803482     -157.101166      -56.848022
 N         -60.933449     -156.704041      -56.732380
 H         -59.925411     -157.408554      -53.064739
 H         -58.757210     -157.404266      -56.723923
 C         -59.053894     -157.902771      -52.562931
 C         -57.937122     -157.089340      -52.084431
 C         -59.079453     -159.322342      -52.490738
 C         -57.229233     -157.801559      -50.860313
 C         -58.632401     -159.857513      -51.166264
 C         -57.221943     -159.285156      -50.847672
 H         -58.179100     -156.046265      -51.872715
 H         -57.052704     -157.061249      -52.836769
 H         -60.190998     -159.671875      -52.608147
 H         -58.510513     -159.758377      -53.343521
 H         -57.807777     -157.372986      -49.895317
 H         -56.268185     -157.352844      -50.697346
 H         -58.408844     -160.893204      -51.290161
 H         -59.329041     -159.807556      -50.350426
 H         -56.672550     -159.693848      -49.870399
 H         -56.631374     -159.543777      -51.672741
