20
 generated by VMD
 C         -37.053886      -98.348343      -25.698618
 N         -36.427738      -98.445358      -26.646463
 H         -36.297699      -95.661804      -28.428625
 H         -37.740219      -98.328453      -24.758057
 C         -35.682503      -95.558128      -29.346046
 C         -35.699512      -96.345985      -30.597847
 C         -34.409691      -94.694977      -29.220911
 C         -35.082748      -95.726456      -31.813595
 C         -33.818466      -94.086601      -30.502172
 C         -33.737152      -95.068085      -31.568108
 H         -36.765923      -96.686234      -30.888334
 H         -35.161171      -97.275352      -30.384886
 H         -34.749168      -93.955872      -28.468771
 H         -33.676422      -95.339439      -28.736929
 H         -35.880104      -94.939133      -31.939285
 H         -35.157249      -96.363243      -32.663143
 H         -32.754559      -93.756325      -30.335815
 H         -34.264160      -93.142967      -30.925201
 H         -33.567024      -94.578232      -32.510975
 H         -32.936874      -95.882866      -31.380123
