20
 generated by VMD
 C         -41.586994     -102.507591      -35.876297
 N         -41.436531     -103.647774      -35.700306
 H         -39.226719     -104.884628      -33.998581
 H         -41.642521     -101.467117      -36.008827
 C         -38.533707     -105.221497      -33.120449
 C         -37.182144     -104.751862      -32.827400
 C         -39.074711     -106.422081      -32.277248
 C         -36.592403     -104.993095      -31.400587
 C         -38.263817     -106.687668      -31.041403
 C         -36.775318     -106.412766      -31.004721
 H         -37.045078     -103.669792      -33.016933
 H         -36.474304     -105.278030      -33.597839
 H         -40.079063     -106.135071      -31.991632
 H         -39.120121     -107.350594      -32.874786
 H         -37.151604     -104.359337      -30.675005
 H         -35.501862     -104.764069      -31.452620
 H         -38.290077     -107.696991      -30.723377
 H         -38.820721     -106.050316      -30.239033
 H         -36.376099     -106.589088      -30.010664
 H         -36.268818     -107.142624      -31.708677
