20
 generated by VMD
 C         -49.125114     -133.044937      -47.115284
 N         -48.194725     -133.160263      -47.914330
 H         -48.440056     -134.652206      -43.812035
 H         -49.867008     -133.063934      -46.319386
 C         -49.473663     -134.880630      -43.852535
 C         -49.838215     -136.276764      -44.430443
 C         -50.561691     -134.267517      -42.986629
 C         -50.250160     -137.182419      -43.235920
 C         -50.975510     -135.172180      -41.900517
 C         -51.391987     -136.581879      -42.528954
 H         -48.895466     -136.685150      -44.912998
 H         -50.561493     -136.170059      -45.206970
 H         -50.178051     -133.379715      -42.558449
 H         -51.385418     -133.954132      -43.595631
 H         -49.440842     -137.267456      -42.446301
 H         -50.540253     -138.158310      -43.563080
 H         -51.802685     -134.637329      -41.249279
 H         -50.131062     -135.460464      -41.144020
 H         -51.777325     -137.238861      -41.723103
 H         -52.422470     -136.549347      -43.113926
