20
 generated by VMD
 C         -68.397293     -186.044846      -67.717903
 N         -68.402725     -187.206589      -67.541840
 H         -68.263374     -187.649063      -64.377739
 H         -68.381149     -184.955536      -68.018272
 C         -69.124641     -187.659714      -63.725983
 C         -68.870773     -187.213699      -62.379025
 C         -70.579315     -187.602203      -64.182701
 C         -69.812225     -187.897980      -61.401394
 C         -71.568382     -188.182098      -63.243645
 C         -71.291466     -187.628754      -61.796600
 H         -69.050949     -186.142502      -62.421902
 H         -67.850952     -187.160950      -62.083332
 H         -70.904572     -186.529877      -64.369812
 H         -70.597305     -188.037491      -65.226494
 H         -69.441978     -187.504395      -60.406448
 H         -69.704063     -188.971756      -61.460915
 H         -71.673531     -189.218094      -63.141418
 H         -72.553482     -187.967209      -63.596497
 H         -71.521103     -186.533615      -61.732388
 H         -72.187485     -188.069168      -61.219234
