20
 generated by VMD
 C         -23.737364      -69.003265      -16.564648
 N         -23.578568      -69.809319      -15.716143
 H         -23.754829      -66.343422      -19.121738
 H         -23.785238      -68.338379      -17.364624
 C         -24.360857      -67.086288      -19.449106
 C         -24.033129      -67.862030      -20.622295
 C         -25.849874      -67.091423      -19.168827
 C         -24.490143      -69.301491      -20.758209
 C         -26.422285      -68.604012      -19.342142
 C         -26.023045      -69.421562      -20.659428
 H         -22.990362      -67.862541      -20.805277
 H         -24.586134      -67.377541      -21.536495
 H         -26.084267      -66.715820      -18.192099
 H         -26.208885      -66.401184      -19.830469
 H         -23.953047      -69.902191      -19.986958
 H         -24.255339      -69.775551      -21.793329
 H         -27.530315      -68.431503      -19.310369
 H         -26.093775      -69.279922      -18.484121
 H         -26.339621      -70.463654      -20.576368
 H         -26.699808      -69.028915      -21.355980
