20
 generated by VMD
 C         -10.115716      -36.757576       -7.189002
 N         -10.338658      -36.510170       -8.251680
 H         -13.306655      -37.941898       -7.910444
 H         -14.556118      -38.394699       -6.651059
 C         -14.117260      -38.659115       -7.666800
 C         -13.421544      -40.034958       -7.544755
 C         -15.284316      -38.709709       -8.663692
 C         -14.365679      -41.260784       -7.424528
 C         -16.247532      -39.870140       -8.448652
 C         -15.503215      -41.227386       -8.524120
 H         -12.586312      -39.975033       -6.802317
 H         -12.839515      -40.301868       -8.482541
 H         -15.752172      -37.778072       -8.792992
 H         -14.871293      -38.884384       -9.677489
 H         -14.799576      -41.305557       -6.456610
 H         -13.791476      -42.195408       -7.518699
 H         -17.009617      -39.743793       -9.150443
 H         -16.744663      -39.674416       -7.443119
 H         -16.183933      -42.056049       -8.410911
 H         -14.973321      -41.379028       -9.489383
