20
 generated by VMD
 C         -11.472184      -27.142448       -1.149260
 N         -12.333673      -26.458677       -1.401838
 H         -10.474137      -26.167143       -3.877803
 H          -9.335841      -25.752977       -5.233511
 C          -9.414073      -26.095404       -4.182788
 C          -8.779269      -27.454987       -4.162924
 C          -8.680625      -25.058556       -3.304890
 C          -7.275048      -27.468283       -4.271479
 C          -7.143713      -25.174215       -3.249384
 C          -6.583598      -26.568665       -3.275561
 H          -9.190090      -28.077435       -5.029137
 H          -8.961644      -27.803629       -3.171466
 H          -9.012487      -24.073021       -3.684267
 H          -9.045152      -25.267389       -2.253487
 H          -7.008156      -27.067390       -5.254629
 H          -6.948880      -28.510971       -4.180475
 H          -6.717243      -24.649290       -2.422864
 H          -6.682650      -24.768522       -4.138164
 H          -5.488616      -26.562489       -3.409322
 H          -6.768302      -26.983559       -2.293340
