20
 generated by VMD
 C         -23.501038      -52.946007      -12.805031
 N         -23.068602      -52.620216      -13.872398
 H         -20.529879      -54.881187      -14.391339
 H         -23.904926      -53.604202      -11.977527
 C         -19.369303      -54.654255      -14.047503
 C         -19.003149      -53.254620      -14.046103
 C         -18.297813      -55.766647      -14.050403
 C         -17.761808      -52.975044      -13.223054
 C         -17.218016      -55.403923      -13.031054
 C         -16.647997      -54.018936      -13.479731
 H         -19.793322      -52.665855      -13.658647
 H         -18.822636      -53.008347      -15.044944
 H         -18.907166      -56.675510      -13.803659
 H         -17.859632      -55.850796      -15.033080
 H         -18.018845      -53.010662      -12.160158
 H         -17.364325      -51.961430      -13.441560
 H         -16.471394      -56.269291      -12.997066
 H         -17.621490      -55.307884      -12.039938
 H         -15.806700      -53.841690      -12.800209
 H         -16.374166      -53.931065      -14.552443
