20
 generated by VMD
 C         -58.977386     -159.111740      -57.659740
 N         -58.361427     -160.150970      -57.746529
 H         -58.868080     -161.333038      -54.878704
 H         -59.509644     -158.175385      -57.526901
 C         -59.457897     -161.629089      -54.015301
 C         -58.853184     -161.894974      -52.675964
 C         -60.841423     -162.079941      -54.388954
 C         -59.838417     -161.767975      -51.580345
 C         -61.766132     -161.884354      -53.285530
 C         -61.192181     -162.443939      -51.974537
 H         -58.024418     -161.257050      -52.589905
 H         -58.590115     -162.902679      -52.573280
 H         -61.111526     -161.328430      -55.252445
 H         -60.956692     -163.080765      -54.758736
 H         -60.105644     -160.619339      -51.492764
 H         -59.434925     -161.923920      -50.590076
 H         -62.673222     -162.343750      -53.532162
 H         -61.978561     -160.828217      -53.227314
 H         -61.869053     -162.221359      -51.126213
 H         -61.152775     -163.508728      -51.980999
