20
 generated by VMD
 C         -10.760371      -37.354424       -8.187895
 N         -10.769230      -36.313599       -7.801948
 H         -13.338113      -37.419849       -7.788920
 H         -14.295067      -38.072277       -6.430747
 C         -13.977472      -38.281986       -7.467176
 C         -13.136999      -39.551411       -7.363977
 C         -15.120450      -38.394043       -8.462424
 C         -13.932171      -40.843571       -7.320965
 C         -15.965115      -39.645515       -8.165251
 C         -15.084847      -40.842026       -8.384826
 H         -12.469513      -39.602901       -6.532223
 H         -12.517625      -39.583626       -8.222565
 H         -15.765371      -37.466125       -8.447469
 H         -14.724607      -38.430447       -9.454224
 H         -14.362827      -40.976505       -6.284883
 H         -13.264188      -41.703579       -7.360354
 H         -16.835665      -39.612701       -8.902786
 H         -16.341467      -39.549011       -7.178197
 H         -15.672156      -41.778027       -8.348108
 H         -14.645108      -40.744808       -9.350058
