20
 generated by VMD
 C         -23.488480      -53.088112      -12.913421
 N         -23.113688      -52.596756      -13.918781
 H         -20.536404      -54.989273      -14.408570
 H         -23.761744      -53.197258      -12.021746
 C         -19.372616      -54.727165      -14.101192
 C         -18.912285      -53.250732      -14.106459
 C         -18.449373      -55.896557      -13.956972
 C         -17.765882      -52.998142      -13.056823
 C         -17.179276      -55.456314      -13.218430
 C         -16.742939      -54.020565      -13.418227
 H         -19.784321      -52.674805      -13.873536
 H         -18.543985      -52.957958      -15.048714
 H         -19.039610      -56.718235      -13.439151
 H         -18.218983      -56.206009      -14.975387
 H         -18.150448      -53.040695      -12.038965
 H         -17.236279      -52.034306      -13.223794
 H         -16.414558      -56.232819      -13.551462
 H         -17.293810      -55.605194      -12.162112
 H         -15.836391      -53.831833      -12.845392
 H         -16.583157      -53.844143      -14.492309
