20
 generated by VMD
 C         -73.842796     -201.585754      -65.410736
 N         -72.897102     -201.031784      -65.758766
 H         -75.159042     -198.121933      -66.843307
 H         -74.764740     -201.824768      -64.910324
 C         -74.711990     -197.647766      -67.711533
 C         -74.870125     -196.249924      -68.070465
 C         -74.365395     -198.372620      -68.957428
 C         -73.538750     -195.627747      -68.438370
 C         -73.536224     -197.611588      -70.025368
 C         -72.620300     -196.627457      -69.384056
 H         -75.217758     -195.599915      -67.232506
 H         -75.639938     -196.058075      -68.739510
 H         -73.772636     -199.297546      -68.656532
 H         -75.375412     -198.836380      -69.308281
 H         -72.944923     -195.262161      -67.589409
 H         -73.712051     -194.755081      -69.048134
 H         -74.239250     -197.036819      -70.575089
 H         -72.999115     -198.389557      -70.632263
 H         -71.970001     -197.124527      -68.768044
 H         -72.034073     -196.102493      -70.254829
