20
 generated by VMD
 C         -14.106843      -28.798096       -7.438911
 N         -13.310253      -28.962643       -8.202868
 H         -11.667276      -30.478373       -4.762495
 H         -10.380980      -29.844954       -3.960122
 C         -10.760717      -30.813805       -4.328935
 C          -9.927066      -31.381210       -5.515893
 C         -10.991965      -31.820913       -3.200784
 C          -8.657794      -32.155319       -5.036907
 C          -9.719716      -32.509415       -2.712043
 C          -8.898385      -33.128487       -3.809789
 H          -9.742407      -30.554520       -6.178678
 H         -10.517130      -32.166748       -6.068769
 H         -11.490048      -31.326561       -2.367723
 H         -11.713448      -32.605537       -3.502695
 H          -7.865137      -31.513548       -4.747725
 H          -8.271771      -32.783817       -5.813530
 H         -10.071532      -33.355721       -2.014197
 H          -9.156613      -31.830166       -2.104059
 H          -7.971424      -33.522060       -3.417346
 H          -9.340282      -34.012463       -4.211093
