20
 generated by VMD
 C         -79.145119     -205.772903      -73.922852
 N         -79.189491     -206.856033      -73.610115
 H         -78.671967     -206.108612      -70.515945
 H         -79.314156     -204.743179      -74.197075
 C         -77.606499     -206.355606      -70.485382
 C         -76.769424     -205.532547      -71.359711
 C         -77.191185     -207.633072      -69.876488
 C         -75.351410     -205.375015      -70.822998
 C         -75.870644     -207.455765      -69.214417
 C         -74.873100     -206.768585      -70.172173
 H         -77.238663     -204.573425      -71.196419
 H         -76.688080     -205.707321      -72.361107
 H         -77.841919     -207.764786      -69.007973
 H         -77.411850     -208.474991      -70.578209
 H         -75.343819     -204.703751      -69.986290
 H         -74.584450     -204.953445      -71.506302
 H         -75.408882     -208.405563      -68.768700
 H         -76.075912     -206.771545      -68.421211
 H         -73.847977     -206.601440      -69.772575
 H         -74.664932     -207.525177      -71.000252
