20
 generated by VMD
 C         -68.281807     -194.335052      -66.415947
 N         -67.715332     -194.158310      -65.387535
 H         -70.336998     -191.018707      -66.607742
 H         -68.934433     -194.467896      -67.230225
 C         -71.329391     -191.131332      -66.201279
 C         -72.455627     -190.242004      -66.563438
 C         -71.508461     -192.075790      -65.023293
 C         -73.822304     -190.813919      -66.417824
 C         -72.885506     -191.934341      -64.421906
 C         -73.986549     -192.001465      -65.461906
 H         -72.465195     -189.791901      -67.570831
 H         -72.458504     -189.401062      -65.860443
 H         -71.256012     -193.136642      -65.442955
 H         -70.834846     -191.764175      -64.183090
 H         -74.099434     -191.198334      -67.417175
 H         -74.292374     -189.897903      -66.065865
 H         -72.960289     -191.078110      -63.734337
 H         -73.013435     -192.823837      -63.727448
 H         -73.925560     -192.911118      -65.931000
 H         -75.003082     -191.903748      -64.871643
