20
 generated by VMD
 C         -68.538208     -185.510971      -66.599220
 N         -67.839561     -186.290054      -67.113052
 H         -69.422180     -183.453751      -63.562313
 H         -69.256935     -184.816620      -66.243027
 C         -69.452217     -184.372223      -63.039261
 C         -70.747589     -185.020325      -62.522541
 C         -68.329292     -185.316727      -63.103870
 C         -70.493210     -185.669830      -61.137814
 C         -68.055855     -185.967407      -61.800926
 C         -69.244400     -186.615768      -61.203651
 H         -70.968147     -185.827042      -63.321758
 H         -71.585876     -184.267319      -62.465992
 H         -68.441658     -186.286255      -63.745792
 H         -67.392235     -184.894638      -63.499760
 H         -71.439941     -186.143661      -60.863804
 H         -70.243431     -184.875000      -60.408691
 H         -67.752335     -185.119324      -61.147072
 H         -67.099998     -186.595779      -61.907070
 H         -69.447220     -187.577713      -61.680252
 H         -68.826675     -186.933868      -60.214172
