20
 generated by VMD
 C          -7.348333      -23.454945        1.737992
 N          -7.483244      -22.708782        2.574897
 H          -8.875612      -23.541273       -1.461922
 H          -9.449397      -22.455269       -2.756159
 C          -8.543527      -22.862629       -2.200118
 C          -7.684141      -23.560446       -3.177463
 C          -7.820430      -21.714666       -1.533854
 C          -6.962246      -22.621277       -4.088765
 C          -7.072325      -20.754051       -2.515888
 C          -6.168393      -21.542377       -3.407055
 H          -8.323900      -24.246819       -3.787598
 H          -6.943334      -24.035654       -2.589849
 H          -8.500638      -21.274815       -0.787126
 H          -7.033785      -22.118786       -0.887268
 H          -7.728333      -22.092777       -4.752797
 H          -6.405438      -23.158392       -4.875073
 H          -6.582139      -19.924891       -1.972638
 H          -7.827634      -20.185715       -3.080327
 H          -5.642288      -20.947351       -4.140004
 H          -5.415411      -22.017908       -2.849983
