20
 generated by VMD
 C         -19.530935      -63.787167      -16.515888
 N         -20.118238      -63.028954      -17.156603
 H         -23.276890      -63.469440      -17.086933
 H         -18.835943      -64.525612      -16.181238
 C         -23.805195      -64.355171      -17.518099
 C         -24.425362      -64.231308      -18.828053
 C         -24.568842      -65.088463      -16.464458
 C         -24.781897      -65.610611      -19.498220
 C         -24.749540      -66.501930      -17.065805
 C         -25.479568      -66.488564      -18.462780
 H         -23.726835      -63.536003      -19.432566
 H         -25.261749      -63.508228      -18.760849
 H         -23.888840      -65.135559      -15.536599
 H         -25.520617      -64.630775      -16.401175
 H         -23.830486      -66.115608      -19.875755
 H         -25.354799      -65.449539      -20.448114
 H         -25.345942      -67.056961      -16.290638
 H         -23.775555      -66.999794      -17.106279
 H         -25.715988      -67.555534      -18.780010
 H         -26.369579      -65.881210      -18.354925
