20
 generated by VMD
 C         -37.891296     -107.968185      -37.189789
 N         -38.646084     -107.957985      -38.076569
 H         -40.935146     -108.550674      -35.331539
 H         -37.375469     -107.947723      -36.215145
 C         -41.186405     -109.417862      -34.702831
 C         -40.160213     -110.511322      -34.873749
 C         -42.455585     -109.707069      -33.924706
 C         -39.946430     -111.482765      -33.554764
 C         -42.236687     -110.625458      -32.647243
 C         -41.339947     -111.839966      -33.012676
 H         -39.184853     -110.238266      -35.209831
 H         -40.586361     -111.260368      -35.515945
 H         -42.896626     -108.681404      -33.649563
 H         -43.172672     -110.293976      -34.490837
 H         -39.306129     -110.993042      -32.915493
 H         -39.552841     -112.443825      -34.012257
 H         -43.288044     -110.848061      -32.347214
 H         -41.782124     -110.068420      -31.772192
 H         -41.230923     -112.549522      -32.065277
 H         -41.787704     -112.532722      -33.686916
