20
 generated by VMD
 C         -70.248306     -198.159729      -64.362740
 N         -69.885323     -198.083313      -65.455414
 H         -72.920830     -196.735687      -66.347961
 H         -70.492836     -198.374237      -63.310818
 C         -73.474625     -195.895798      -66.746109
 C         -73.170128     -194.434540      -66.405327
 C         -74.508942     -196.053299      -67.943916
 C         -73.028183     -193.409103      -67.583450
 C         -74.799828     -194.857803      -68.838974
 C         -73.618057     -193.927872      -68.923683
 H         -72.183914     -194.404556      -65.976555
 H         -74.063293     -193.966766      -65.791420
 H         -73.954628     -196.718872      -68.560455
 H         -75.440674     -196.442810      -67.642258
 H         -71.983551     -193.097244      -67.734627
 H         -73.550194     -192.513214      -67.316544
 H         -75.585320     -194.321304      -68.317894
 H         -75.242935     -195.358459      -69.713623
 H         -72.861794     -194.629639      -69.464096
 H         -73.819138     -193.159241      -69.568611
