20
 generated by VMD
 C         -36.217239      -97.794472      -26.772461
 N         -36.101654      -98.078255      -25.671726
 H         -36.039303      -95.359680      -28.243053
 H         -36.200851      -97.647942      -27.916468
 C         -35.412727      -95.159958      -29.102633
 C         -35.661175      -96.192513      -30.269878
 C         -34.114872      -94.410370      -28.999029
 C         -35.418468      -95.342529      -31.532951
 C         -33.939499      -93.779930      -30.399878
 C         -34.037846      -94.787941      -31.541306
 H         -36.634094      -96.651344      -30.267368
 H         -34.977859      -96.980591      -30.002693
 H         -34.227173      -93.585968      -28.279106
 H         -33.252365      -95.034737      -28.804695
 H         -36.241543      -94.621994      -31.597309
 H         -35.519440      -95.999611      -32.384926
 H         -32.805538      -93.470718      -30.447300
 H         -34.545841      -92.896637      -30.484919
 H         -33.872334      -94.235657      -32.609169
 H         -33.275192      -95.574837      -31.461243
