20
 generated by VMD
 C         -74.441704     -200.565018      -66.220177
 N         -73.326584     -200.936905      -66.300446
 H         -76.380325     -198.705673      -68.512604
 H         -75.484573     -200.403336      -66.368439
 C         -75.410934     -198.306213      -68.760071
 C         -74.914749     -197.205124      -67.737335
 C         -74.547928     -199.050583      -69.616814
 C         -73.561081     -196.545929      -68.059242
 C         -73.204567     -198.369720      -69.912025
 C         -72.582840     -197.604980      -68.708366
 H         -74.754143     -197.558594      -66.777206
 H         -75.688751     -196.375412      -67.759895
 H         -74.323883     -200.053024      -69.153069
 H         -75.122093     -199.197525      -70.626640
 H         -73.025391     -196.349609      -67.142471
 H         -73.580421     -195.613632      -68.713730
 H         -73.403259     -197.696411      -70.785141
 H         -72.454117     -199.143646      -70.353210
 H         -72.342827     -198.280975      -67.910683
 H         -71.531700     -197.204895      -69.072662
