20
 generated by VMD
 C         -70.235970     -181.338852      -62.680836
 N         -70.989021     -180.610046      -63.101994
 H         -67.217743     -181.889313      -60.588131
 H         -69.451599     -182.042740      -62.358757
 C         -66.599556     -180.956512      -60.769936
 C         -65.148102     -180.920746      -60.332603
 C         -67.237206     -179.686981      -60.574055
 C         -64.359718     -179.754288      -60.746384
 C         -66.436325     -178.379532      -60.894062
 C         -64.997658     -178.441193      -60.335407
 H         -64.623322     -181.787415      -60.822598
 H         -65.171822     -181.212524      -59.257496
 H         -68.193893     -179.553391      -61.239685
 H         -67.569313     -179.491745      -59.532703
 H         -64.310127     -179.628906      -61.888435
 H         -63.268566     -179.815399      -60.374672
 H         -66.932899     -177.417755      -60.714790
 H         -66.379967     -178.375351      -61.998734
 H         -64.418228     -177.512833      -60.832443
 H         -65.173462     -178.242706      -59.298943
