20
 generated by VMD
 C         -13.533473      -43.210316       -6.341307
 N         -12.920268      -42.702629       -7.106614
 H         -14.693943      -44.569817       -8.619868
 H         -14.224735      -43.141022       -9.475886
 C         -14.982374      -43.938931       -9.411420
 C         -16.420923      -43.384026       -9.198651
 C         -15.131425      -44.787693      -10.633441
 C         -17.063871      -42.628719      -10.358603
 C         -15.645140      -43.989048      -11.848682
 C         -17.060907      -43.494911      -11.600207
 H         -16.364475      -42.644402       -8.333220
 H         -17.098125      -44.245991       -8.923734
 H         -14.128053      -45.179722      -10.976453
 H         -15.850430      -45.567757      -10.386950
 H         -16.537212      -41.673382      -10.569242
 H         -18.106232      -42.400532      -10.092167
 H         -15.640935      -44.486359      -12.833465
 H         -14.859193      -43.169998      -11.983676
 H         -17.370642      -42.932140      -12.465687
 H         -17.821192      -44.240829      -11.520184
