20
 generated by VMD
 C         -22.845577      -52.394230      -11.941450
 N         -22.882206      -52.542221      -10.853957
 H         -19.915148      -52.649010      -13.853747
 H         -22.404902      -52.053268      -13.053538
 C         -18.898151      -52.750404      -13.903779
 C         -18.006355      -51.867821      -14.785181
 C         -18.366220      -53.584068      -12.808913
 C         -16.568314      -52.270500      -14.583098
 C         -17.049479      -53.034412      -12.256577
 C         -16.145088      -52.143379      -13.121294
 H         -18.094870      -50.830410      -14.538598
 H         -18.302233      -52.031757      -15.803722
 H         -19.135532      -53.762684      -12.037354
 H         -18.141621      -54.537716      -13.267881
 H         -15.874517      -51.570255      -15.102239
 H         -16.294310      -53.309067      -14.878026
 H         -16.434078      -53.828358      -12.013868
 H         -17.387005      -52.469894      -11.355784
 H         -16.157286      -51.128407      -12.727262
 H         -15.110772      -52.530312      -13.025627
