20
 generated by VMD
 C         -22.259563      -52.255516      -11.477407
 N         -21.992481      -52.776573      -10.514036
 H         -19.669037      -52.988598      -14.320372
 H         -22.437386      -51.573399      -12.560251
 C         -18.904905      -52.261116      -13.902929
 C         -17.914457      -51.558727      -14.791158
 C         -18.530251      -52.321529      -12.499477
 C         -16.498108      -52.078915      -14.490485
 C         -17.221455      -51.623215      -12.216249
 C         -16.092066      -52.277485      -13.031526
 H         -17.800524      -50.469082      -14.599630
 H         -18.138990      -51.713799      -15.812911
 H         -19.325191      -51.839218      -11.927040
 H         -18.451168      -53.422150      -12.184093
 H         -15.744255      -51.546608      -15.072495
 H         -16.420362      -53.093506      -14.867643
 H         -16.959057      -51.657074      -11.117342
 H         -17.299599      -50.620796      -12.443038
 H         -15.135783      -51.879124      -12.719942
 H         -15.920207      -53.328701      -12.805529
