20
 generated by VMD
 C         -29.740324      -74.016960      -20.581976
 N         -30.000618      -75.086189      -20.257071
 H         -26.731462      -74.300446      -18.984295
 H         -29.670044      -72.958344      -20.558619
 C         -26.456430      -74.188347      -20.019953
 C         -26.013519      -75.331833      -20.884598
 C         -26.056820      -72.840607      -20.427063
 C         -26.021900      -74.940857      -22.423033
 C         -26.032917      -72.572060      -21.931725
 C         -25.311144      -73.684090      -22.696835
 H         -26.650768      -76.316086      -20.680191
 H         -25.062840      -75.681076      -20.553001
 H         -26.639502      -72.171967      -19.843430
 H         -25.004517      -72.607819      -20.054436
 H         -27.090559      -74.887283      -22.568947
 H         -25.628309      -75.656555      -23.130461
 H         -25.520298      -71.543098      -22.019186
 H         -27.125523      -72.536377      -22.134285
 H         -25.179560      -73.435089      -23.723139
 H         -24.293287      -73.778717      -22.288237
