20
 generated by VMD
 C         -60.118404     -153.300888      -51.715538
 N         -60.260464     -152.215500      -51.405369
 H         -57.310108     -153.826370      -49.887741
 H         -59.951057     -154.258194      -52.165997
 C         -56.463921     -153.181244      -50.071232
 C         -55.112812     -153.217209      -49.368988
 C         -56.775448     -151.891022      -50.781506
 C         -54.022896     -152.781189      -50.364441
 C         -55.551392     -151.168167      -51.442223
 C         -54.193874     -151.362656      -50.763016
 H         -54.872040     -154.278961      -49.194855
 H         -55.322495     -152.648392      -48.440800
 H         -57.615135     -152.022247      -51.427299
 H         -57.182995     -151.217819      -49.985939
 H         -53.991524     -153.541473      -51.191635
 H         -53.078842     -152.897095      -49.888329
 H         -55.738255     -150.172928      -51.537464
 H         -55.587273     -151.612106      -52.467987
 H         -53.400906     -151.051559      -51.401882
 H         -54.027596     -150.680862      -49.850044
