20
 generated by VMD
 C         -19.818956      -62.042332      -17.710226
 N         -19.864264      -61.851589      -16.586391
 H         -21.854361      -64.622993      -16.701090
 H         -19.821417      -62.033890      -18.877377
 C         -22.927740      -64.838135      -16.965500
 C         -23.413853      -64.360107      -18.283834
 C         -24.055620      -65.282890      -16.095493
 C         -24.518587      -64.967705      -19.072678
 C         -25.264856      -65.862556      -16.871847
 C         -25.703619      -65.063583      -18.072210
 H         -22.546881      -64.298752      -18.925425
 H         -23.614737      -63.353996      -18.049131
 H         -23.745989      -66.129745      -15.347175
 H         -24.546268      -64.452614      -15.593917
 H         -24.290489      -65.916588      -19.539474
 H         -24.690704      -64.264427      -19.862633
 H         -26.143003      -66.008110      -16.188244
 H         -25.134640      -66.932365      -17.065861
 H         -26.503429      -65.693558      -18.538755
 H         -26.174078      -64.131035      -17.896479
