20
 generated by VMD
 C         -11.369987      -40.900566       -7.485560
 N         -11.668682      -40.449833       -6.514979
 H         -13.824387      -40.731808       -8.463807
 H         -15.056869      -40.030125       -9.394507
 C         -14.686010      -40.996235       -9.049710
 C         -15.696746      -41.679604       -8.088675
 C         -14.344199      -41.812656      -10.281899
 C         -16.986244      -42.121483       -8.840436
 C         -15.604643      -42.357807      -10.973690
 C         -16.651148      -43.030628       -9.996616
 H         -15.873394      -41.021416       -7.170977
 H         -15.196489      -42.594593       -7.637100
 H         -13.636541      -41.241112      -10.974668
 H         -13.780615      -42.681583       -9.901832
 H         -17.530455      -41.244053       -9.205396
 H         -17.623657      -42.693317       -8.198151
 H         -15.337590      -43.081337      -11.656342
 H         -16.184849      -41.533337      -11.510510
 H         -17.529778      -43.310047      -10.571424
 H         -16.193781      -43.897476       -9.570727
