20
 generated by VMD
 C         -26.869343      -72.042831      -17.536476
 N         -27.353369      -73.055107      -17.302874
 H         -24.679777      -70.261971      -18.556303
 H         -26.649773      -70.967163      -17.695274
 C         -24.936352      -70.525208      -19.567644
 C         -24.264116      -71.612953      -20.319046
 C         -25.746508      -69.388741      -20.460392
 C         -25.120094      -72.179955      -21.423925
 C         -26.713903      -70.056702      -21.541134
 C         -25.906103      -71.130913      -22.316404
 H         -24.137255      -72.369751      -19.672852
 H         -23.343771      -71.203995      -20.526852
 H         -26.205759      -68.644485      -19.761435
 H         -25.056770      -68.732300      -20.947866
 H         -25.789665      -72.955666      -21.057835
 H         -24.441311      -72.701500      -22.162970
 H         -27.126446      -69.370010      -22.283510
 H         -27.627443      -70.456390      -21.082073
 H         -26.463377      -71.821404      -22.917742
 H         -25.142235      -70.686951      -23.016727
