20
 generated by VMD
 C         -31.103821      -78.358467      -26.248573
 N         -31.548807      -77.587334      -25.530699
 H         -29.377058      -77.622467      -23.012772
 H         -30.725367      -79.219650      -26.764662
 C         -28.720198      -78.270012      -22.481482
 C         -27.373199      -78.577324      -23.059999
 C         -29.601765      -79.464653      -22.043653
 C         -26.642366      -79.647552      -22.138754
 C         -28.755611      -80.565681      -21.354683
 C         -27.379827      -80.917999      -22.034637
 H         -26.703203      -77.683746      -23.072712
 H         -27.570364      -79.156967      -24.042238
 H         -30.431379      -79.242287      -21.487034
 H         -29.930969      -80.008484      -22.963060
 H         -26.376181      -79.352562      -21.110464
 H         -25.638931      -79.641983      -22.633547
 H         -29.317648      -81.457504      -21.187525
 H         -28.517080      -80.250549      -20.372141
 H         -26.792877      -81.739021      -21.555277
 H         -27.643585      -81.286331      -23.072723
