20
 generated by VMD
 C         -73.894577     -201.482117      -65.543610
 N         -72.941757     -200.983368      -65.939491
 H         -75.260971     -198.216141      -67.081924
 H         -74.809998     -201.767380      -64.968407
 C         -75.104156     -197.729599      -68.051483
 C         -74.892311     -196.300064      -67.939461
 C         -74.428246     -198.588821      -69.100288
 C         -73.462494     -195.798523      -68.449104
 C         -73.463081     -197.829132      -70.003128
 C         -72.596931     -196.839417      -69.099403
 H         -75.118332     -195.875885      -67.034401
 H         -75.609283     -195.742813      -68.618690
 H         -73.940140     -199.475952      -68.664040
 H         -75.271156     -199.044067      -69.606224
 H         -72.870758     -195.312042      -67.679619
 H         -73.537033     -194.961761      -69.179718
 H         -74.053215     -197.283173      -70.755119
 H         -72.850792     -198.571609      -70.416267
 H         -71.987114     -197.379471      -68.239281
 H         -71.835274     -196.443893      -69.733475
