20
 generated by VMD
 C         -47.698521     -125.370071      -39.088329
 N         -47.819164     -126.381729      -38.516224
 H         -45.708210     -123.065834      -37.898609
 H         -47.583313     -124.402260      -39.525585
 C         -45.274376     -123.045753      -38.846603
 C         -44.477795     -124.221153      -39.370880
 C         -45.696991     -121.890404      -39.769672
 C         -44.635292     -124.498222      -40.910835
 C         -45.802265     -122.258217      -41.319824
 C         -44.643940     -123.218773      -41.699085
 H         -44.840759     -125.003761      -38.574165
 H         -43.434914     -123.967728      -39.216404
 H         -46.621265     -121.574554      -39.361938
 H         -44.945488     -121.073051      -39.567585
 H         -45.653038     -124.829491      -40.947128
 H         -43.965508     -125.239235      -41.263374
 H         -45.592957     -121.419983      -41.839687
 H         -46.731567     -122.642746      -41.575825
 H         -44.780182     -123.497635      -42.789795
 H         -43.691967     -122.632416      -41.583633
