20
 generated by VMD
 C         -69.926262     -183.301224      -65.354202
 N         -69.614471     -182.399185      -65.997047
 H         -68.092392     -184.929565      -62.966209
 H         -70.178787     -184.111221      -64.765450
 C         -67.807213     -184.172028      -62.228645
 C         -67.983261     -184.491562      -60.759892
 C         -67.991585     -182.735184      -62.658085
 C         -67.294777     -183.548157      -59.789841
 C         -67.151268     -181.883377      -61.798023
 C         -67.381302     -182.099609      -60.316395
 H         -67.560440     -185.561615      -60.596035
 H         -69.066284     -184.636047      -60.738831
 H         -67.628899     -182.472000      -63.592358
 H         -69.089172     -182.612289      -62.507385
 H         -66.267853     -183.842712      -59.869324
 H         -67.662018     -183.669647      -58.843849
 H         -67.313393     -180.813980      -61.905090
 H         -66.136368     -182.118576      -62.128311
 H         -66.522118     -181.576553      -59.881584
 H         -68.305176     -181.600586      -59.839920
