20
 generated by VMD
 C         -38.905807     -111.466942      -36.540802
 N         -38.338539     -110.491982      -36.681484
 H         -40.386219     -114.632523      -34.730106
 H         -39.413010     -112.429710      -36.299473
 C         -41.215073     -113.991554      -35.102646
 C         -41.653206     -113.975693      -36.595203
 C         -41.965031     -112.897408      -34.350101
 C         -43.170036     -114.095253      -36.746071
 C         -43.449535     -113.035583      -34.513329
 C         -43.797966     -112.928970      -36.022190
 H         -41.151695     -114.824974      -36.995026
 H         -41.307045     -113.000183      -37.060448
 H         -41.755833     -112.954712      -33.271599
 H         -41.407856     -111.996719      -34.604275
 H         -43.480156     -115.131470      -36.421883
 H         -43.559570     -114.063332      -37.825890
 H         -43.847466     -112.260750      -33.951553
 H         -44.017868     -113.832733      -34.091141
 H         -44.934074     -112.780891      -36.003174
 H         -43.421867     -111.986885      -36.338181
