20
 generated by VMD
 C         -57.717087     -165.492096      -56.461349
 N         -57.229500     -164.663651      -57.174438
 H         -60.111942     -164.665604      -54.419483
 H         -58.237568     -166.208725      -55.815632
 C         -61.220917     -164.852737      -54.557163
 C         -61.948715     -166.100891      -54.255035
 C         -61.714924     -163.896194      -55.601414
 C         -63.505943     -166.144806      -54.495049
 C         -63.238754     -163.971741      -55.895645
 C         -63.780552     -165.446976      -55.880119
 H         -61.757103     -166.380722      -53.147728
 H         -61.445461     -166.973724      -54.660282
 H         -61.596638     -162.939545      -55.313015
 H         -61.188354     -163.944992      -56.551331
 H         -63.936119     -165.672256      -53.597023
 H         -63.712151     -167.197510      -54.480740
 H         -63.531902     -163.487122      -56.845608
 H         -63.874687     -163.331757      -55.108032
 H         -64.865517     -165.453537      -55.895405
 H         -63.275436     -166.032745      -56.601562
