20
 generated by VMD
 C         -30.785000      -77.989555      -25.644222
 N         -31.818033      -77.698555      -26.174114
 H         -29.400537      -78.069199      -22.785639
 H         -29.764000      -78.251587      -25.538626
 C         -28.902208      -79.028992      -23.032097
 C         -27.477839      -79.295113      -23.381586
 C         -29.724424      -80.222069      -22.638269
 C         -26.804834      -79.868103      -22.124624
 C         -29.071548      -80.875603      -21.438917
 C         -27.523716      -81.031036      -21.522547
 H         -27.014364      -78.395973      -23.651100
 H         -27.502172      -80.112732      -24.101164
 H         -30.713486      -79.840019      -22.516396
 H         -29.789827      -80.936226      -23.550938
 H         -26.669792      -79.198158      -21.281721
 H         -25.789963      -80.052361      -22.390594
 H         -29.621103      -81.873680      -21.392689
 H         -29.304998      -80.182693      -20.608213
 H         -27.045862      -81.278793      -20.521715
 H         -27.351341      -81.888550      -22.149593
