20
 generated by VMD
 C         -18.369871      -48.999878       -7.437339
 N         -19.152243      -49.782120       -7.642886
 H         -16.134117      -47.497421      -10.078573
 H         -16.607574      -48.975212      -10.972226
 C         -16.378595      -47.868618      -11.088992
 C         -15.206240      -47.732079      -11.957492
 C         -17.635794      -47.164551      -11.569577
 C         -15.457344      -47.960133      -13.457418
 C         -17.968155      -47.692719      -13.000455
 C         -16.787310      -47.395683      -13.981577
 H         -14.318778      -48.351059      -11.637808
 H         -14.843968      -46.721123      -11.718062
 H         -18.449100      -47.443752      -10.903309
 H         -17.641068      -46.078579      -11.469646
 H         -15.515293      -49.058479      -13.566797
 H         -14.626697      -47.731895      -14.128925
 H         -18.892717      -47.243095      -13.379086
 H         -18.091640      -48.783749      -13.072881
 H         -16.949724      -47.895496      -14.980732
 H         -16.709560      -46.257835      -14.143798
