20
 generated by VMD
 C         -38.308041     -110.564247      -36.207886
 N         -37.849598     -109.488266      -36.298321
 H         -40.061207     -113.439972      -36.248325
 H         -38.894707     -111.454773      -35.860474
 C         -41.056385     -113.144402      -35.908669
 C         -42.113010     -113.803322      -36.696354
 C         -41.511139     -112.073753      -34.932713
 C         -43.390842     -114.161804      -35.883327
 C         -42.733120     -112.428787      -34.123520
 C         -43.953915     -113.022087      -34.978943
 H         -41.705223     -114.743271      -37.106812
 H         -42.447372     -113.206444      -37.544853
 H         -40.585491     -111.886757      -34.433853
 H         -41.621532     -111.279167      -35.686680
 H         -43.080215     -114.958069      -35.174057
 H         -44.089222     -114.650948      -36.540012
 H         -43.213127     -111.557182      -33.570633
 H         -42.412762     -113.127434      -33.288799
 H         -44.860146     -113.460045      -34.403511
 H         -44.364315     -112.224228      -35.517204
