20
 generated by VMD
 C         -70.448082     -182.256668      -63.746838
 N         -69.500885     -182.731949      -64.150444
 H         -68.465065     -180.328705      -62.290161
 H         -71.351860     -181.824295      -63.346069
 C         -67.871483     -180.584122      -61.482212
 C         -67.400757     -181.889359      -61.017006
 C         -67.236359     -179.436096      -60.702686
 C         -65.905113     -181.966507      -60.988472
 C         -65.764938     -179.446259      -60.670975
 C         -65.282135     -180.829605      -60.204994
 H         -67.728622     -182.534821      -61.821449
 H         -67.912758     -182.017807      -60.058369
 H         -67.413765     -178.473343      -61.090069
 H         -67.582870     -179.507187      -59.636253
 H         -65.494843     -182.156265      -62.041267
 H         -65.759178     -183.012207      -60.550934
 H         -65.312859     -178.677170      -60.035343
 H         -65.342697     -179.158844      -61.655899
 H         -64.218254     -180.922211      -60.182579
 H         -65.551254     -180.788651      -59.101700
