20
 generated by VMD
 C         -12.014765      -31.534653       -8.384549
 N         -12.168441      -30.638155       -7.705819
 H         -11.243751      -35.031391       -7.856458
 H         -12.526828      -33.929111       -7.123917
 C         -11.704176      -34.700104       -6.896127
 C         -10.630825      -34.038261       -5.992350
 C         -12.259830      -36.037403       -6.348097
 C         -11.274123      -33.973083       -4.574137
 C         -12.754847      -35.944359       -4.862223
 C         -11.674026      -35.342175       -3.990054
 H         -10.486248      -33.001598       -6.443541
 H          -9.701195      -34.595726       -5.977776
 H         -13.137417      -36.280525       -6.974161
 H         -11.538200      -36.866707       -6.432549
 H         -12.163212      -33.348949       -4.642791
 H         -10.454699      -33.579750       -3.921116
 H         -13.013797      -37.007877       -4.527288
 H         -13.626617      -35.379601       -4.855156
 H         -12.069918      -35.173222       -2.962103
 H         -10.767128      -35.956535       -3.836860
