20
 generated by VMD
 C         -50.718800     -129.799362      -45.231888
 N         -51.081234     -129.406403      -44.252716
 H         -49.001682     -129.290985      -42.529099
 H         -50.350601     -130.399841      -46.054089
 C         -48.172440     -129.402695      -41.921059
 C         -47.991055     -130.797729      -41.351452
 C         -47.408707     -128.104553      -41.435806
 C         -46.517422     -131.044281      -41.283615
 C         -46.019341     -128.474899      -41.194115
 C         -45.798672     -129.900146      -40.628513
 H         -48.376617     -131.596878      -41.966793
 H         -48.527378     -130.955795      -40.338009
 H         -47.506310     -127.274994      -42.190628
 H         -47.859062     -127.850624      -40.420952
 H         -46.096096     -131.011047      -42.329643
 H         -46.328995     -131.961777      -40.643337
 H         -45.459351     -127.750900      -40.627728
 H         -45.405682     -128.546738      -42.143780
 H         -44.752907     -130.083389      -40.801239
 H         -45.840416     -129.770416      -39.529305
