20
 generated by VMD
 C         -50.353741     -145.155350      -45.184120
 N         -50.142075     -145.057526      -44.009861
 H         -53.214092     -143.416275      -45.878429
 H         -50.681526     -145.171768      -46.247978
 C         -53.451672     -143.069717      -46.883904
 C         -52.590450     -143.048050      -48.079090
 C         -54.706890     -142.187332      -46.903023
 C         -53.322033     -143.175934      -49.399872
 C         -55.399654     -142.388702      -48.234730
 C         -54.518963     -142.209854      -49.435715
 H         -51.877598     -143.896118      -47.765530
 H         -52.022980     -142.083282      -48.097874
 H         -55.313499     -142.572174      -46.045120
 H         -54.399288     -141.138382      -46.754532
 H         -53.849312     -144.234680      -49.445980
 H         -52.533722     -143.107483      -50.223076
 H         -56.212658     -141.569763      -48.242886
 H         -55.950203     -143.300873      -48.274559
 H         -55.215858     -142.537155      -50.301086
 H         -54.139351     -141.143875      -49.680805
