20
 generated by VMD
 C         -17.931519      -48.494156       -7.088926
 N         -17.504250      -47.790737       -6.319536
 H         -16.462498      -48.455708      -10.447406
 H         -15.831309      -48.807549      -12.144171
 C         -16.307749      -48.072910      -11.456800
 C         -15.359917      -46.886860      -11.365327
 C         -17.724127      -47.786232      -12.069842
 C         -15.407759      -46.136402      -12.712416
 C         -17.552126      -47.294109      -13.464816
 C         -16.806517      -46.000881      -13.273297
 H         -14.353140      -47.184372      -11.047938
 H         -15.661025      -46.145493      -10.618831
 H         -18.183777      -48.793949      -12.148907
 H         -18.448713      -47.219395      -11.486574
 H         -14.828308      -46.734852      -13.428326
 H         -14.879516      -45.157593      -12.651400
 H         -18.544046      -47.150063      -13.944437
 H         -16.901064      -47.940655      -14.165646
 H         -16.677771      -45.564888      -14.284055
 H         -17.412748      -45.262791      -12.750163
