20
 generated by VMD
 C          -7.720990      -23.565081        2.025880
 N          -7.625762      -23.200897        3.086610
 H          -9.058501      -23.485233       -1.669297
 H          -9.334379      -22.314827       -3.058856
 C          -8.637009      -22.845680       -2.458897
 C          -7.732046      -23.671608       -3.364852
 C          -7.810719      -21.767309       -1.722461
 C          -6.961622      -22.825289       -4.304729
 C          -7.041784      -20.920788       -2.700136
 C          -6.149086      -21.778193       -3.631064
 H          -8.266763      -24.283663       -4.031348
 H          -7.162219      -24.405636       -2.747619
 H          -8.556809      -21.187244       -1.165546
 H          -7.038498      -22.189425       -1.051013
 H          -7.596878      -22.481358       -5.097079
 H          -6.295351      -23.461559       -4.902573
 H          -6.383032      -20.222075       -2.179744
 H          -7.696544      -20.321680       -3.337344
 H          -5.702806      -21.095791       -4.362349
 H          -5.352982      -22.218956       -2.976219
