20
 generated by VMD
 C         -68.262772     -188.112762      -66.602638
 N         -68.774200     -189.050278      -67.112030
 H         -68.301048     -187.160431      -63.499470
 H         -67.690155     -187.425232      -66.060219
 C         -69.296478     -187.613068      -63.604115
 C         -69.415993     -189.069870      -63.302471
 C         -70.407524     -186.790329      -63.255566
 C         -70.805626     -189.650208      -63.630501
 C         -71.741669     -187.302521      -63.821255
 C         -72.033737     -188.767395      -63.262657
 H         -69.098778     -189.283539      -62.248055
 H         -68.648354     -189.529160      -64.003929
 H         -70.405907     -186.529861      -62.212494
 H         -70.202980     -185.704529      -63.598606
 H         -70.875359     -190.655701      -63.116562
 H         -70.809036     -189.737793      -64.711517
 H         -71.648560     -187.334381      -64.905251
 H         -72.649643     -186.663177      -63.687939
 H         -71.963211     -188.727493      -62.155148
 H         -73.004662     -189.027817      -63.638165
