20
 generated by VMD
 C         -58.824104     -151.965378      -48.997578
 N         -59.147919     -152.197372      -50.091331
 H         -56.222546     -150.591843      -48.260284
 H         -58.629337     -151.794144      -47.961563
 C         -55.704170     -150.202957      -49.110573
 C         -54.701332     -151.107544      -49.682159
 C         -55.281151     -148.722931      -49.129414
 C         -54.166008     -150.712936      -51.034061
 C         -54.727947     -148.431290      -50.528465
 C         -53.702633     -149.284180      -51.017254
 H         -55.184620     -152.043518      -49.871609
 H         -53.704399     -151.154083      -49.054516
 H         -56.170284     -148.150238      -48.798584
 H         -54.591042     -148.534592      -48.345833
 H         -54.859184     -150.832947      -51.898193
 H         -53.305725     -151.336273      -51.185040
 H         -54.601490     -147.420822      -50.737854
 H         -55.705917     -148.478729      -51.237396
 H         -53.372238     -149.004135      -52.053818
 H         -52.786026     -149.127457      -50.489693
