20
 generated by VMD
 C          -9.191051      -23.960901        2.155956
 N          -8.929623      -25.019678        2.428645
 H          -7.720163      -23.527086       -0.963208
 H          -8.909280      -22.787001       -2.009122
 C          -7.883283      -23.047415       -1.916529
 C          -7.632420      -24.141117       -2.942803
 C          -7.034391      -21.770561       -2.149940
 C          -7.559610      -23.706507       -4.337655
 C          -6.952278      -21.391502       -3.633768
 C          -6.576468      -22.576767       -4.561089
 H          -8.406586      -24.922012       -2.706544
 H          -6.757674      -24.696938       -2.702264
 H          -7.421134      -20.922308       -1.544596
 H          -6.031719      -22.052536       -1.842180
 H          -8.479796      -23.387335       -4.812907
 H          -7.325137      -24.575121       -5.005206
 H          -6.237996      -20.581938       -3.825197
 H          -7.970342      -21.005873       -3.844837
 H          -6.608687      -22.339674       -5.641335
 H          -5.550417      -22.900291       -4.205682
