20
 generated by VMD
 C         -68.210472     -185.198227      -67.609154
 N         -67.601509     -185.917847      -66.941750
 H         -69.637596     -185.222183      -64.535660
 H         -68.808052     -184.408234      -68.129868
 C         -69.635925     -185.548203      -63.537575
 C         -70.830833     -185.190582      -62.649345
 C         -68.843803     -186.758438      -63.115181
 C         -70.470337     -185.420349      -61.129749
 C         -68.374458     -186.619202      -61.724678
 C         -69.563324     -186.639343      -60.814800
 H         -71.734680     -185.760330      -62.734135
 H         -71.176949     -184.118332      -62.749027
 H         -69.505089     -187.676315      -63.117157
 H         -68.039642     -186.995804      -63.914833
 H         -71.304428     -185.350479      -60.441303
 H         -69.859802     -184.541855      -60.708813
 H         -67.841797     -185.642227      -61.518070
 H         -67.695824     -187.484253      -61.511673
 H         -70.263611     -187.525436      -61.085686
 H         -69.349594     -186.430939      -59.765800
