20
 generated by VMD
 C         -41.102299     -104.563416      -35.806591
 N         -42.053288     -104.892624      -36.371922
 H         -38.007870     -103.963600      -33.435841
 H         -40.297665     -104.128258      -35.302364
 C         -38.040264     -104.927208      -32.934158
 C         -36.915226     -105.364815      -32.167862
 C         -39.128025     -105.961205      -33.260780
 C         -37.237881     -106.578247      -31.252199
 C         -39.317871     -107.095955      -32.164288
 C         -38.069813     -107.683731      -31.723354
 H         -36.612968     -104.557518      -31.458920
 H         -35.967106     -105.591103      -32.793377
 H         -40.077423     -105.449318      -33.558025
 H         -38.766182     -106.433403      -34.148216
 H         -37.495949     -106.048363      -30.315136
 H         -36.360710     -107.115021      -30.858185
 H         -39.968601     -107.907280      -32.628250
 H         -39.789059     -106.546127      -31.268223
 H         -38.246815     -108.344940      -30.887844
 H         -37.624031     -108.296211      -32.559029
