20
 generated by VMD
 C         -49.467094     -132.189209      -46.445904
 N         -50.273964     -132.115906      -47.227825
 H         -47.580753     -134.154510      -44.327351
 H         -48.532093     -132.494690      -45.959114
 C         -48.500988     -134.363770      -43.817337
 C         -49.053131     -135.735672      -43.829842
 C         -49.176445     -133.269272      -43.023987
 C         -49.748219     -136.170181      -42.583416
 C         -49.931820     -133.797455      -41.762085
 C         -50.736950     -135.022903      -42.183388
 H         -48.292336     -136.448029      -44.076984
 H         -49.811489     -135.786041      -44.729633
 H         -48.486195     -132.576736      -42.702969
 H         -49.851143     -132.692474      -43.670643
 H         -49.173546     -136.399887      -41.690174
 H         -50.492214     -136.891983      -42.880379
 H         -50.593025     -132.965897      -41.307106
 H         -49.164806     -134.038025      -41.018578
 H         -51.441082     -135.313690      -41.420547
 H         -51.524063     -134.682419      -42.882137
