20
 generated by VMD
 C         -50.345612     -131.019760      -46.409355
 N         -50.302254     -131.199142      -47.593296
 H         -48.667030     -131.815033      -44.274670
 H         -50.724384     -130.575256      -45.452351
 C         -48.742970     -132.276947      -43.271374
 C         -49.324127     -133.694702      -43.101410
 C         -48.548981     -131.457489      -42.056267
 C         -48.601768     -134.450333      -42.071697
 C         -47.861771     -132.299637      -40.941814
 C         -48.500675     -133.647552      -40.771214
 H         -49.192715     -134.362335      -44.053139
 H         -50.334126     -133.597275      -42.816933
 H         -47.949677     -130.481750      -41.965157
 H         -49.614147     -131.225555      -41.645134
 H         -47.556126     -134.643646      -42.439857
 H         -49.040894     -135.420380      -41.798798
 H         -47.802631     -131.679337      -39.992386
 H         -46.718174     -132.464569      -41.123150
 H         -47.957657     -134.327072      -40.129230
 H         -49.607571     -133.412216      -40.551369
