20
 generated by VMD
 C         -11.573140      -25.932753       -0.877657
 N         -11.426059      -25.003326       -0.255746
 H          -7.877887      -26.136635       -1.145827
 H          -9.092238      -25.564392       -2.185632
 C          -7.985558      -25.667753       -2.093430
 C          -7.393576      -26.509029       -3.193076
 C          -7.380353      -24.200684       -2.101230
 C          -7.522789      -25.780369       -4.559041
 C          -7.543709      -23.460487       -3.413985
 C          -6.908739      -24.316751       -4.558928
 H          -7.973520      -27.444471       -3.249938
 H          -6.273077      -26.556604       -3.075947
 H          -7.895134      -23.653656       -1.300363
 H          -6.332942      -24.325636       -1.894514
 H          -8.605534      -25.694588       -4.605304
 H          -7.070350      -26.361868       -5.367798
 H          -7.218328      -22.434584       -3.308155
 H          -8.597489      -23.448812       -3.671605
 H          -7.099761      -23.778887       -5.503241
 H          -5.852655      -24.475773       -4.378654
