20
 generated by VMD
 C         -57.040836     -163.331894      -56.588947
 N         -57.197914     -162.407852      -57.328384
 H         -59.773792     -165.205948      -54.820786
 H         -56.827244     -164.193359      -55.926018
 C         -60.773651     -164.963470      -54.715843
 C         -61.369736     -164.886642      -53.264420
 C         -61.555218     -164.402435      -55.972523
 C         -62.620121     -164.022415      -53.121960
 C         -62.921280     -163.758255      -55.761108
 C         -63.620419     -164.188126      -54.375267
 H         -60.632736     -164.503250      -52.587421
 H         -61.530994     -165.927246      -52.945946
 H         -60.831673     -163.750656      -56.433903
 H         -61.637333     -165.230286      -56.657722
 H         -62.392345     -162.910126      -52.995270
 H         -63.130264     -164.326630      -52.201252
 H         -63.621700     -163.978882      -56.593769
 H         -63.106022     -162.699371      -55.923458
 H         -64.447716     -163.521851      -54.121769
 H         -63.922550     -165.220901      -54.442780
