20
 generated by VMD
 C         -78.081200     -204.122757      -69.993439
 N         -79.206566     -203.773468      -70.025284
 H         -76.413773     -203.117477      -68.101692
 H         -77.055664     -204.354980      -70.195061
 C         -75.586838     -202.701370      -68.708748
 C         -75.852318     -201.558380      -69.635277
 C         -74.286781     -203.473114      -68.847511
 C         -74.938919     -201.344818      -70.767403
 C         -73.039101     -202.697693      -69.367821
 C         -73.478638     -201.449615      -70.292603
 H         -75.801666     -200.669174      -69.051292
 H         -76.950195     -201.666412      -69.848228
 H         -74.124184     -203.902145      -67.836441
 H         -74.452217     -204.253174      -69.726036
 H         -74.997597     -200.286270      -71.023735
 H         -75.191704     -201.902878      -71.726097
 H         -72.378731     -203.417145      -69.790665
 H         -72.445686     -202.267014      -68.592117
 H         -73.150291     -200.598785      -69.848267
 H         -72.923729     -201.625931      -71.209267
