20
 generated by VMD
 C         -31.071001      -74.906059      -21.844990
 N         -31.543203      -75.920799      -21.739799
 H         -28.520998      -76.514748      -20.821976
 H         -30.697868      -73.898369      -21.520527
 C         -27.589476      -76.170158      -21.193943
 C         -26.783026      -77.162338      -21.933052
 C         -26.931173      -75.010284      -20.672350
 C         -25.708738      -76.499062      -22.864779
 C         -25.965546      -74.354591      -21.617933
 C         -24.987257      -75.388084      -22.229105
 H         -27.378157      -77.784058      -22.729895
 H         -26.243874      -77.859909      -21.272331
 H         -27.636309      -74.308548      -20.505531
 H         -26.475319      -75.246147      -19.731789
 H         -26.290985      -76.214096      -23.750769
 H         -24.911209      -77.200523      -23.195539
 H         -25.400507      -73.543175      -21.074867
 H         -26.539883      -73.925133      -22.504679
 H         -24.356960      -74.843216      -22.938435
 H         -24.257524      -75.805199      -21.522436
