20
 generated by VMD
 C         -22.084133      -53.009357      -12.535351
 N         -23.044100      -52.473721      -13.017968
 H         -20.231499      -53.894844      -14.640360
 H         -21.111053      -53.665100      -12.060462
 C         -19.498270      -53.845558      -13.791618
 C         -18.901474      -52.439720      -13.660771
 C         -18.483883      -54.874504      -13.381033
 C         -17.485067      -52.397064      -14.157226
 C         -17.160236      -54.501255      -12.743429
 C         -16.505798      -53.319347      -13.380105
 H         -18.852768      -52.142868      -12.579292
 H         -19.522736      -51.712948      -14.192863
 H         -19.079559      -55.562061      -12.789654
 H         -18.138332      -55.386330      -14.317613
 H         -17.057066      -51.392365      -14.232680
 H         -17.495129      -52.748283      -15.199455
 H         -16.430874      -55.336376      -12.754450
 H         -17.313383      -54.253338      -11.696784
 H         -15.975735      -52.750736      -12.590153
 H         -15.734224      -53.547031      -14.161222
