20
 generated by VMD
 C         -62.693233     -172.047592      -55.339600
 N         -61.978760     -173.015884      -55.342323
 H         -61.707596     -171.193039      -58.209949
 H         -63.263912     -171.133926      -55.338615
 C         -62.560593     -170.548950      -58.191399
 C         -62.367435     -169.109863      -57.962940
 C         -63.787373     -171.294647      -58.666290
 C         -63.629848     -168.327271      -58.238441
 C         -64.944252     -170.295959      -58.831234
 C         -64.796936     -169.143600      -57.799820
 H         -61.529205     -168.805084      -58.647881
 H         -62.022331     -168.923309      -56.921101
 H         -63.526958     -171.768097      -59.603733
 H         -64.170662     -171.963440      -57.977558
 H         -63.537811     -167.959183      -59.247635
 H         -63.499969     -167.392014      -57.536156
 H         -65.906868     -170.814636      -58.570835
 H         -65.036354     -169.823547      -59.854340
 H         -65.713959     -168.521088      -57.755875
 H         -64.683426     -169.544464      -56.843090
