20
 generated by VMD
 C         -40.946163     -104.244904      -36.443016
 N         -41.801861     -105.008606      -36.339310
 H         -38.564041     -104.673347      -33.765366
 H         -40.170086     -103.512405      -36.387730
 C         -38.450333     -105.485153      -33.122417
 C         -37.160423     -105.626984      -32.334515
 C         -39.365295     -106.681641      -33.322449
 C         -37.421989     -106.707695      -31.211174
 C         -39.460953     -107.622688      -32.183727
 C         -38.127815     -108.060875      -31.598528
 H         -36.951187     -104.701958      -31.822828
 H         -36.337639     -106.038139      -32.940323
 H         -40.390926     -106.273659      -33.582230
 H         -38.940392     -107.126556      -34.217503
 H         -38.084873     -106.386414      -30.344936
 H         -36.359730     -106.908005      -30.913311
 H         -40.140163     -108.447044      -32.461273
 H         -40.095024     -107.153351      -31.464964
 H         -38.201069     -108.800293      -30.855686
 H         -37.419380     -108.440407      -32.407684
