20
 generated by VMD
 C         -22.269060      -52.230190      -11.510263
 N         -22.001562      -52.789654      -10.492921
 H         -19.566156      -52.974998      -14.325102
 H         -22.523460      -51.651779      -12.494184
 C         -18.906309      -52.284435      -13.900310
 C         -17.910334      -51.533321      -14.795760
 C         -18.529423      -52.337933      -12.502271
 C         -16.490597      -52.093582      -14.497359
 C         -17.224421      -51.645214      -12.209826
 C         -16.094381      -52.276962      -13.030125
 H         -17.836372      -50.483879      -14.613382
 H         -18.138510      -51.717670      -15.818991
 H         -19.295887      -51.873135      -11.886546
 H         -18.441097      -53.424408      -12.225085
 H         -15.734291      -51.524345      -15.091950
 H         -16.430014      -53.121174      -14.933434
 H         -17.031374      -51.663162      -11.130855
 H         -17.285795      -50.603962      -12.470979
 H         -15.121484      -51.842278      -12.758176
 H         -15.935829      -53.323456      -12.746973
