20
 generated by VMD
 C         -30.219706      -92.860085      -25.132710
 N         -30.397930      -93.757065      -25.806345
 H         -33.433407      -91.043846      -26.444838
 H         -30.161669      -91.983513      -24.399494
 C         -33.870831      -91.350838      -27.380686
 C         -35.104378      -92.184608      -27.589111
 C         -33.199223      -90.676407      -28.579311
 C         -36.097599      -91.625572      -28.560114
 C         -34.295063      -90.097076      -29.506086
 C         -35.325886      -91.122444      -29.785282
 H         -35.523495      -92.269341      -26.667843
 H         -34.789009      -93.140633      -27.932379
 H         -32.467773      -89.937294      -28.285200
 H         -32.811794      -91.570168      -29.086411
 H         -36.542084      -90.711716      -28.149614
 H         -36.896282      -92.255775      -28.945942
 H         -33.778206      -89.663795      -30.425869
 H         -34.637108      -89.293839      -28.868301
 H         -35.938885      -90.676880      -30.561466
 H         -34.803810      -91.973480      -30.236277
