20
 generated by VMD
 C          -1.654811       -9.445996       -0.104798
 N          -2.562342       -8.956446        0.367396
 H          -2.221593      -10.781086        2.504698
 H          -2.355646      -11.768003        3.965602
 C          -2.758568      -11.607024        2.962547
 C          -2.729083      -12.825332        2.113927
 C          -4.281333      -11.338671        3.348385
 C          -3.338900      -14.066277        2.726236
 C          -4.925152      -12.541755        3.913792
 C          -4.796281      -13.763160        3.014461
 H          -1.646486      -13.014379        1.913576
 H          -3.229643      -12.580976        1.172076
 H          -4.267636      -10.430245        4.018650
 H          -4.724981      -11.066276        2.370962
 H          -2.722650      -14.423844        3.588786
 H          -3.302524      -14.822055        1.922396
 H          -5.971863      -12.309952        4.011444
 H          -4.540900      -12.808435        4.859758
 H          -5.198881      -14.665723        3.530027
 H          -5.312755      -13.575274        2.073807
