20
 generated by VMD
 C         -13.371874      -45.050613       -6.041347
 N         -14.323791      -44.528877       -6.253309
 H         -14.918334      -44.486855       -9.106076
 H         -14.560182      -43.814301      -10.815845
 C         -15.326816      -44.289131      -10.123245
 C         -16.456713      -43.277596      -10.089695
 C         -15.725063      -45.623600      -10.747396
 C         -16.977654      -43.114803      -11.524473
 C         -16.157232      -45.546375      -12.196800
 C         -17.236450      -44.437538      -12.282299
 H         -16.045603      -42.338142       -9.723411
 H         -17.298483      -43.651108       -9.470101
 H         -14.803515      -46.230518      -10.871157
 H         -16.543777      -46.123489      -10.117483
 H         -16.217794      -42.545929      -12.051541
 H         -17.868483      -42.466629      -11.496024
 H         -16.522320      -46.529396      -12.463783
 H         -15.296626      -45.263065      -12.858567
 H         -17.377270      -44.121151      -13.330750
 H         -18.217113      -44.949665      -11.969345
