20
 generated by VMD
 C         -58.550789     -151.540970      -49.586510
 N         -59.049049     -152.165283      -48.803352
 H         -55.725956     -149.741684      -47.861641
 H         -57.952499     -150.906570      -50.264675
 C         -55.059471     -149.548355      -48.747612
 C         -54.244755     -150.553421      -49.429180
 C         -54.833096     -148.083847      -48.969673
 C         -54.198616     -150.202728      -50.857857
 C         -54.817039     -147.754959      -50.460514
 C         -53.870235     -148.697418      -51.109619
 H         -54.797382     -151.497147      -49.287083
 H         -53.260704     -150.402145      -48.904274
 H         -55.643654     -147.464096      -48.621670
 H         -53.941933     -147.690521      -48.463829
 H         -55.246605     -150.386169      -51.166218
 H         -53.513210     -150.899765      -51.393860
 H         -54.721729     -146.713181      -50.640385
 H         -55.795006     -148.021347      -50.909637
 H         -53.971542     -148.493805      -52.171299
 H         -52.874458     -148.471313      -50.827385
