20
 generated by VMD
 C         -79.750786     -206.830704      -73.319931
 N         -79.793350     -206.116821      -74.245728
 H         -78.261681     -205.423370      -70.339844
 H         -80.031746     -207.500916      -72.535706
 C         -77.214066     -205.609802      -70.317047
 C         -76.238976     -204.619675      -70.969917
 C         -76.943054     -206.887253      -69.551292
 C         -74.817482     -204.892868      -70.446877
 C         -75.465149     -207.014114      -69.205643
 C         -74.523804     -206.311157      -70.171471
 H         -76.686485     -203.650101      -70.841278
 H         -76.226219     -204.844284      -71.981682
 H         -77.659348     -206.952484      -68.700066
 H         -77.151482     -207.785812      -70.111900
 H         -74.745689     -204.262009      -69.532593
 H         -74.123634     -204.461838      -71.195992
 H         -75.113831     -207.988968      -69.010651
 H         -75.326775     -206.587143      -68.140472
 H         -73.538338     -206.419556      -69.682724
 H         -74.357704     -206.753387      -71.155975
