20
 generated by VMD
 C         -48.451736     -135.948929      -46.154858
 N         -47.333023     -136.173599      -45.755146
 H         -52.091682     -135.158676      -45.930519
 H         -49.437305     -135.752182      -46.557812
 C         -51.612228     -136.044861      -45.396267
 C         -52.314285     -137.283218      -45.919765
 C         -51.356987     -135.947418      -43.920433
 C         -51.729027     -138.619324      -45.249348
 C         -50.793278     -137.317917      -43.357155
 C         -51.810482     -138.311447      -43.712341
 H         -52.190098     -137.232712      -46.961769
 H         -53.444721     -137.347855      -45.778336
 H         -50.667370     -135.153687      -43.541985
 H         -52.269939     -135.797729      -43.332016
 H         -50.786686     -138.713318      -45.696026
 H         -52.389877     -139.428802      -45.439148
 H         -50.634010     -137.200562      -42.360245
 H         -49.825321     -137.629395      -43.845394
 H         -51.537094     -139.331573      -43.102970
 H         -52.872643     -138.108017      -43.366722
