20
 generated by VMD
 C         -78.757027     -209.526199      -77.339592
 N         -79.041748     -209.401230      -76.172997
 H         -78.068344     -210.252045      -73.630081
 H         -78.515984     -209.761978      -78.319016
 C         -78.424187     -210.844666      -72.733559
 C         -77.362518     -211.274780      -71.684334
 C         -79.494492     -211.846283      -73.023186
 C         -77.968407     -211.805374      -70.461609
 C         -80.070648     -212.166733      -71.689339
 C         -79.112198     -212.766251      -70.779152
 H         -76.886032     -210.301834      -71.345757
 H         -76.673531     -211.973770      -72.221237
 H         -80.295120     -211.455612      -73.710236
 H         -79.030624     -212.759689      -73.531357
 H         -78.452774     -211.023361      -69.850784
 H         -77.169136     -212.303879      -69.880318
 H         -80.917564     -212.865952      -72.009201
 H         -80.511139     -211.325272      -71.315903
 H         -79.466026     -213.372299      -69.929985
 H         -78.737556     -213.502808      -71.447197
