20
 generated by VMD
 C         -61.417843     -172.329895      -54.982620
 N         -60.511848     -173.025620      -55.136791
 H         -62.148891     -170.731918      -58.367508
 H         -62.338768     -171.740936      -54.866943
 C         -62.839333     -170.077911      -57.780159
 C         -62.639713     -168.598801      -57.622520
 C         -64.293335     -170.331650      -57.502323
 C         -63.387188     -167.772888      -58.630524
 C         -65.198822     -169.693512      -58.495377
 C         -64.918915     -168.132904      -58.709290
 H         -61.466805     -168.447571      -57.633068
 H         -62.907013     -168.341141      -56.645618
 H         -64.472168     -171.450272      -57.521603
 H         -64.664154     -170.077850      -56.459293
 H         -62.988991     -168.045456      -59.588257
 H         -63.272617     -166.723480      -58.504120
 H         -66.299225     -169.837585      -58.327976
 H         -64.925194     -170.190445      -59.509571
 H         -65.165321     -167.659210      -59.682701
 H         -65.476669     -167.554855      -57.982647
