20
 generated by VMD
 C         -22.983067      -53.458763      -13.849652
 N         -23.713284      -52.882309      -14.540336
 H         -20.721762      -54.981720      -14.820643
 H         -22.406654      -54.396481      -13.201732
 C         -19.765434      -55.008965      -14.054112
 C         -19.159815      -53.695187      -13.793670
 C         -18.724970      -56.118828      -14.316082
 C         -17.971464      -53.782879      -12.835849
 C         -17.415165      -56.236160      -13.538305
 C         -16.869631      -54.818981      -13.264935
 H         -19.876638      -53.030983      -13.337549
 H         -19.004412      -53.211609      -14.719127
 H         -19.264608      -57.015553      -14.304482
 H         -18.425718      -55.959702      -15.352544
 H         -18.327883      -54.038624      -11.834611
 H         -17.379650      -52.855083      -12.785977
 H         -16.608004      -56.768440      -14.040054
 H         -17.593187      -56.758675      -12.586481
 H         -16.122084      -54.897625      -12.453701
 H         -16.389013      -54.368294      -14.203533
