20
 generated by VMD
 C         -29.787592      -79.855774      -26.451750
 N         -30.198914      -78.908379      -25.859327
 H         -28.654205      -82.984474      -25.642004
 H         -29.482557      -80.643372      -27.025995
 C         -29.212963      -82.899681      -24.762630
 C         -28.798273      -81.972610      -23.706490
 C         -29.907385      -84.138046      -24.336010
 C         -29.853767      -81.628029      -22.677485
 C         -31.115759      -83.822716      -23.451202
 C         -30.624165      -82.842026      -22.290062
 H         -28.461687      -81.070679      -24.253567
 H         -27.889807      -82.349129      -23.238575
 H         -30.174496      -84.651588      -25.330807
 H         -29.318172      -84.901642      -23.850409
 H         -30.332611      -80.784935      -23.122152
 H         -29.389942      -81.229759      -21.783733
 H         -31.563902      -84.761208      -22.920530
 H         -31.964935      -83.282814      -23.926348
 H         -31.423204      -82.561882      -21.626259
 H         -29.980957      -83.335663      -21.528532
