20
 generated by VMD
 C         -70.459785     -196.678360      -65.250671
 N         -69.738304     -197.407837      -65.772903
 H         -73.618446     -196.315781      -65.474617
 H         -71.286179     -196.143356      -64.854012
 C         -73.732712     -195.581650      -66.241142
 C         -73.107224     -194.190384      -66.121628
 C         -74.262177     -195.910263      -67.598679
 C         -72.349976     -193.869843      -67.422523
 C         -74.667885     -194.751846      -68.334282
 C         -73.426453     -193.821884      -68.523117
 H         -72.390755     -194.298737      -65.364128
 H         -74.004105     -193.449707      -66.015327
 H         -73.377151     -196.444885      -68.165344
 H         -75.124580     -196.628433      -67.545097
 H         -71.584511     -194.622513      -67.688934
 H         -71.946068     -192.868286      -67.364578
 H         -75.369827     -194.181412      -67.691986
 H         -75.257370     -194.885727      -69.258095
 H         -73.014534     -194.032318      -69.598015
 H         -73.809174     -192.859100      -68.569641
