20
 generated by VMD
 C         -63.276611     -174.846313      -55.165989
 N         -62.743805     -174.314209      -56.071747
 H         -64.990204     -173.284866      -57.775520
 H         -63.835907     -175.369110      -54.412281
 C         -64.693001     -172.434357      -58.319794
 C         -64.640198     -171.158386      -57.493698
 C         -64.435074     -172.487473      -59.787205
 C         -63.985554     -169.951752      -58.138264
 C         -63.676693     -171.258575      -60.337025
 C         -64.133247     -169.849136      -59.787960
 H         -64.231789     -171.474991      -56.471455
 H         -65.668243     -171.073166      -57.313362
 H         -63.778820     -173.447281      -59.878475
 H         -65.475693     -172.653824      -60.224213
 H         -62.842567     -169.961731      -57.960770
 H         -64.402763     -169.035172      -57.673859
 H         -63.775951     -171.232819      -61.412148
 H         -62.615749     -171.389999      -60.201836
 H         -63.577446     -168.935104      -60.216904
 H         -65.193161     -169.703522      -59.912815
