20
 generated by VMD
 C         -67.749924     -185.812866      -67.215065
 N         -68.775246     -186.020416      -67.752457
 H         -68.518288     -187.912140      -64.600922
 H         -66.856667     -185.652924      -66.565788
 C         -69.205475     -187.849121      -63.776375
 C         -68.932266     -186.625412      -62.974659
 C         -70.720116     -188.289291      -63.837967
 C         -69.505493     -186.914474      -61.545582
 C         -71.330154     -188.336746      -62.463268
 C         -70.971832     -187.135834      -61.592350
 H         -69.401268     -185.735703      -63.466866
 H         -67.827316     -186.454010      -62.866684
 H         -71.263969     -187.463608      -64.322830
 H         -70.789879     -189.254532      -64.265617
 H         -69.293434     -186.192230      -60.715149
 H         -68.972305     -187.783676      -61.258007
 H         -71.123589     -189.399200      -62.017723
 H         -72.446579     -188.125107      -62.546253
 H         -71.478439     -186.281357      -62.021454
 H         -71.279671     -187.392776      -60.563068
