20
 generated by VMD
 C         -29.480417      -79.976959      -26.513721
 N         -29.752424      -80.147400      -27.622732
 H         -28.138750      -82.644394      -24.780481
 H         -29.395718      -79.759056      -25.515583
 C         -29.149908      -82.955101      -24.346334
 C         -29.308617      -82.777863      -22.837891
 C         -30.020824      -84.090721      -24.900476
 C         -30.700190      -82.788361      -22.252325
 C         -31.368002      -84.202911      -24.188532
 C         -31.455465      -84.014076      -22.749365
 H         -29.041393      -81.716049      -22.550730
 H         -28.727945      -83.460518      -22.229525
 H         -30.076090      -83.895882      -25.942778
 H         -29.521189      -85.068344      -24.891190
 H         -31.175375      -81.851181      -22.596901
 H         -30.808748      -82.730766      -21.142595
 H         -31.686378      -85.190308      -24.443663
 H         -32.093826      -83.588463      -24.773291
 H         -32.525555      -84.125603      -22.543999
 H         -30.948343      -84.821648      -22.281570
