20
 generated by VMD
 C         -52.639065     -146.488205      -44.302788
 N         -51.725460     -146.611221      -45.083378
 H         -53.926380     -146.128387      -47.261932
 H         -53.516857     -146.515900      -43.691959
 C         -53.930466     -145.191666      -47.849430
 C         -52.923286     -145.047852      -48.908794
 C         -54.891541     -143.969803      -47.448009
 C         -53.368301     -144.415405      -50.252121
 C         -55.359917     -143.285629      -48.837826
 C         -54.236622     -143.136307      -49.898632
 H         -52.542557     -146.095535      -49.243584
 H         -52.086937     -144.539886      -48.423763
 H         -55.764816     -144.367905      -46.982536
 H         -54.275879     -143.211746      -47.018787
 H         -53.930481     -145.115494      -50.766582
 H         -52.513897     -143.978439      -50.775223
 H         -55.928268     -142.312317      -48.723026
 H         -55.945225     -144.034027      -49.240150
 H         -54.712807     -142.868103      -50.888340
 H         -53.533707     -142.275314      -49.814995
