20
 generated by VMD
 C         -59.936302     -156.786118      -56.164421
 N         -60.985634     -156.289703      -56.311787
 H         -59.703548     -157.488510      -53.456017
 H         -59.018543     -157.282761      -55.890923
 C         -58.837658     -157.899811      -52.814686
 C         -57.728310     -157.042755      -52.393852
 C         -58.656666     -159.399765      -52.469173
 C         -57.304279     -157.228119      -51.029469
 C         -58.403790     -159.500748      -50.975971
 C         -57.187641     -158.720825      -50.637444
 H         -58.055241     -156.053345      -52.648911
 H         -56.833225     -157.278671      -53.042751
 H         -59.591930     -159.981827      -52.667019
 H         -57.897461     -159.883423      -53.016769
 H         -57.944145     -156.848038      -50.286522
 H         -56.475883     -156.655807      -50.767735
 H         -58.249950     -160.572968      -50.669910
 H         -59.296162     -159.193939      -50.250683
 H         -57.090603     -158.715775      -49.533340
 H         -56.311977     -159.160324      -51.024437
