20
 generated by VMD
 C         -50.698154     -129.568588      -45.681171
 N         -51.179337     -130.581711      -45.438976
 H         -48.525951     -130.803619      -43.929478
 H         -50.160473     -128.699524      -45.969864
 C         -48.159897     -131.028870      -42.908695
 C         -48.359455     -132.307144      -42.258747
 C         -47.893925     -129.757599      -42.166862
 C         -47.223103     -132.504623      -41.261692
 C         -46.868294     -130.033325      -41.136276
 C         -47.041859     -131.275482      -40.323421
 H         -48.340332     -133.069397      -42.988911
 H         -49.439476     -132.317535      -41.896996
 H         -47.420708     -128.995316      -42.810764
 H         -48.796005     -129.459030      -41.769756
 H         -46.296982     -132.713257      -41.830338
 H         -47.406502     -133.459534      -40.700180
 H         -46.806957     -129.297607      -40.403957
 H         -45.937881     -130.140747      -41.678047
 H         -46.274048     -131.457016      -39.583191
 H         -47.917252     -131.414948      -39.718536
