20
 generated by VMD
 C         -50.767532     -129.626602      -45.972488
 N         -50.949062     -130.529053      -45.198887
 H         -48.060654     -131.020599      -44.180790
 H         -50.513824     -128.621170      -46.230461
 C         -48.128590     -131.267776      -43.143841
 C         -48.338772     -132.523514      -42.387371
 C         -47.976330     -130.070450      -42.345581
 C         -47.362045     -132.731934      -41.208855
 C         -46.978771     -130.232925      -41.173519
 C         -47.358990     -131.393051      -40.287235
 H         -48.145157     -133.485489      -42.991100
 H         -49.380791     -132.490219      -42.025776
 H         -47.653107     -129.172791      -42.915375
 H         -49.081982     -129.755981      -41.973267
 H         -46.341812     -132.966949      -41.479855
 H         -47.785553     -133.509323      -40.563347
 H         -47.009155     -129.272629      -40.536888
 H         -45.946949     -130.290161      -41.559547
 H         -46.730785     -131.558319      -39.374989
 H         -48.418755     -131.241409      -39.946556
