20
 generated by VMD
 C         -63.442768     -174.798492      -55.523369
 N         -62.518105     -174.432785      -56.168613
 H         -65.214020     -173.446381      -57.837914
 H         -64.267532     -175.238144      -54.990902
 C         -64.825745     -172.506760      -58.288036
 C         -65.038521     -171.067627      -57.577320
 C         -64.570671     -172.505630      -59.804905
 C         -64.095634     -170.013367      -58.132370
 C         -63.426125     -171.570633      -60.183151
 C         -63.928684     -170.201584      -59.691147
 H         -64.980721     -171.224899      -56.492100
 H         -66.156982     -170.909073      -57.731434
 H         -64.325722     -173.614075      -60.006775
 H         -65.533287     -172.223297      -60.307590
 H         -62.986229     -170.146927      -57.745422
 H         -64.398987     -168.952820      -57.904694
 H         -63.166153     -171.474274      -61.260757
 H         -62.580936     -171.851440      -59.612282
 H         -63.177784     -169.403961      -60.023548
 H         -64.899529     -169.864792      -60.135899
