20
 generated by VMD
 C         -69.699409     -183.215027      -65.291054
 N         -70.144821     -182.397964      -66.007790
 H         -68.028915     -184.675003      -63.006538
 H         -69.294830     -183.891754      -64.612030
 C         -67.726395     -183.954590      -62.243862
 C         -67.899597     -184.283417      -60.759537
 C         -67.702682     -182.537933      -62.587158
 C         -67.149857     -183.429962      -59.813335
 C         -67.057655     -181.615265      -61.602242
 C         -67.311951     -182.002899      -60.146214
 H         -67.719002     -185.340622      -60.522148
 H         -68.932716     -184.223404      -60.518147
 H         -67.246574     -182.250122      -63.478424
 H         -68.832336     -182.369263      -62.722744
 H         -66.022942     -183.720093      -59.916065
 H         -67.282951     -183.470551      -58.698151
 H         -67.539948     -180.636703      -61.751163
 H         -66.023201     -181.476852      -61.864338
 H         -66.530617     -181.462585      -59.571014
 H         -68.287331     -181.491394      -59.845360
