20
 generated by VMD
 C         -68.352127     -185.217331      -67.323151
 N         -67.634209     -186.051315      -66.945511
 H         -69.847244     -185.161041      -64.624649
 H         -69.047493     -184.430222      -67.628952
 C         -69.708099     -185.464401      -63.567043
 C         -70.808998     -185.124557      -62.522324
 C         -68.479866     -186.292877      -63.220089
 C         -70.460197     -185.373901      -61.005665
 C         -68.296898     -186.495712      -61.734077
 C         -69.653435     -186.612152      -60.929436
 H         -71.608459     -185.765686      -62.922268
 H         -70.929855     -184.039185      -62.665932
 H         -68.830437     -187.325638      -63.668049
 H         -67.454475     -185.977325      -63.593952
 H         -71.343048     -185.565552      -60.428963
 H         -69.856789     -184.516449      -60.732216
 H         -67.636612     -185.695999      -61.344780
 H         -67.743286     -187.512939      -61.615604
 H         -70.117325     -187.637146      -61.217800
 H         -69.229294     -186.826752      -59.901878
