20
 generated by VMD
 C         -46.533859     -124.475632      -36.586182
 N         -47.000099     -125.171013      -35.756821
 H         -44.840950     -122.123428      -37.937656
 H         -46.256042     -123.783401      -37.438343
 C         -44.634106     -121.886337      -39.007832
 C         -43.347530     -121.777596      -39.749672
 C         -45.765530     -121.022072      -39.504463
 C         -43.478653     -121.919548      -41.279396
 C         -45.962994     -121.181488      -41.038185
 C         -44.674648     -121.289436      -41.865433
 H         -42.561268     -122.450531      -39.317989
 H         -42.860470     -120.838272      -39.546555
 H         -46.638775     -121.221367      -38.889229
 H         -45.426067     -120.020248      -39.278740
 H         -43.664669     -123.067459      -41.354168
 H         -42.561398     -121.543648      -41.875412
 H         -46.661804     -120.399727      -41.307632
 H         -46.594532     -122.175758      -41.184437
 H         -44.936073     -121.706444      -42.835915
 H         -44.417675     -120.220284      -41.930656
