20
 generated by VMD
 C         -11.387876      -34.047867       -8.491134
 N         -10.701578      -34.799782       -8.910923
 H         -11.857341      -37.527885       -7.922152
 H         -12.746377      -37.144157       -6.367196
 C         -12.685042      -37.829987       -7.216764
 C         -12.481250      -39.220131       -6.706223
 C         -13.962829      -37.585400       -8.053017
 C         -13.740736      -39.651340       -5.928338
 C         -15.221532      -38.238026       -7.372818
 C         -14.954961      -39.634758       -6.841400
 H         -11.637613      -39.259251       -5.970486
 H         -12.230275      -39.948544       -7.502652
 H         -14.140301      -36.469944       -8.119047
 H         -13.784017      -37.989140       -9.025223
 H         -13.837931      -38.968719       -5.035149
 H         -13.612066      -40.646286       -5.606018
 H         -16.024736      -38.296879       -8.170649
 H         -15.582294      -37.649410       -6.598570
 H         -15.857681      -39.904381       -6.276362
 H         -14.840777      -40.357208       -7.617097
