20
 generated by VMD
 C         -31.287073      -75.727325      -21.641041
 N         -32.304630      -75.284081      -21.323023
 H         -27.869589      -75.325470      -20.134104
 H         -30.385239      -76.102699      -21.414455
 C         -26.870647      -75.278374      -20.564281
 C         -26.437263      -76.379257      -21.398571
 C         -25.934631      -74.091385      -20.377085
 C         -25.920427      -75.892166      -22.766470
 C         -25.376690      -73.666985      -21.791075
 C         -24.844717      -74.861984      -22.605518
 H         -27.340199      -77.118942      -21.655512
 H         -25.858812      -77.041245      -20.706020
 H         -26.581297      -73.297127      -20.054342
 H         -25.135075      -74.430519      -19.693192
 H         -26.639910      -75.443451      -23.429094
 H         -25.525442      -76.748528      -23.317234
 H         -24.563036      -72.950287      -21.750412
 H         -26.090010      -73.005539      -22.281456
 H         -24.544916      -74.608475      -23.627600
 H         -24.013639      -75.171631      -21.999763
