20
 generated by VMD
 C         -48.412071     -126.147408      -38.683796
 N         -48.965485     -127.164299      -38.574379
 H         -46.135777     -123.406998      -38.148304
 H         -47.866024     -125.272972      -39.026592
 C         -45.494995     -123.266510      -39.132969
 C         -44.433315     -124.399765      -39.551014
 C         -45.583477     -122.042068      -40.031933
 C         -44.370403     -124.575356      -41.066257
 C         -45.551991     -122.362427      -41.526985
 C         -44.192810     -123.201393      -41.772537
 H         -44.615814     -125.404129      -39.051682
 H         -43.380810     -123.959808      -39.233852
 H         -46.635708     -121.664406      -39.886055
 H         -45.022015     -121.247368      -39.614792
 H         -45.169651     -125.145027      -41.539322
 H         -43.534634     -125.218147      -41.281811
 H         -45.493462     -121.453842      -42.000603
 H         -46.409935     -122.802231      -41.958302
 H         -44.057011     -123.479012      -42.815403
 H         -43.273113     -122.610458      -41.417828
