20
 generated by VMD
 C         -41.756973     -102.195251      -33.964630
 N         -40.795490     -101.868965      -34.480591
 H         -39.397545     -103.601471      -32.408707
 H         -42.620312     -102.523186      -33.427700
 C         -38.305786     -103.905670      -32.139381
 C         -37.183453     -103.698097      -33.060204
 C         -38.145725     -104.727646      -30.961748
 C         -35.921276     -103.134216      -32.368809
 C         -36.867832     -104.292130      -30.223190
 C         -35.658745     -104.093147      -31.157433
 H         -37.480232     -102.936714      -33.831184
 H         -36.835274     -104.572975      -33.559315
 H         -39.023911     -104.532242      -30.319080
 H         -38.038734     -105.777260      -31.093939
 H         -36.227650     -102.109253      -32.029247
 H         -35.264057     -102.960861      -33.199524
 H         -36.655155     -105.066521      -29.591171
 H         -37.028908     -103.364784      -29.576529
 H         -34.828495     -103.767403      -30.592697
 H         -35.306995     -105.108047      -31.562334
