20
 generated by VMD
 C         -52.776512     -147.232086      -45.384583
 N         -53.918339     -147.377106      -45.140652
 H         -54.992386     -147.510086      -48.484642
 H         -51.768837     -147.094986      -45.692261
 C         -54.563969     -146.575119      -48.676689
 C         -53.284122     -146.397751      -49.374950
 C         -55.070438     -145.263794      -47.952938
 C         -53.360878     -145.137177      -50.326736
 C         -55.260040     -144.072083      -49.007095
 C         -53.895599     -143.866501      -49.730854
 H         -53.058964     -147.386414      -49.884605
 H         -52.554623     -146.297546      -48.581944
 H         -56.163666     -145.257706      -47.588539
 H         -54.527187     -145.061966      -47.033474
 H         -54.059891     -145.498108      -51.202744
 H         -52.280376     -144.935684      -50.625145
 H         -55.364716     -143.096085      -48.377323
 H         -56.091877     -144.199814      -49.739723
 H         -53.910824     -143.050674      -50.506573
 H         -53.111374     -143.577911      -49.010544
