20
 generated by VMD
 C         -54.058823     -148.005920      -45.479675
 N         -54.534386     -148.082397      -44.402363
 H         -54.438305     -147.872406      -48.458557
 H         -53.454475     -147.853378      -46.354115
 C         -54.365303     -146.953033      -49.002037
 C         -53.168900     -146.710297      -49.947563
 C         -55.173168     -145.785034      -48.225960
 C         -53.416218     -145.402039      -50.787426
 C         -55.141808     -144.537308      -49.233833
 C         -53.733543     -144.211533      -49.886497
 H         -53.130482     -147.534210      -50.668343
 H         -52.102600     -146.737320      -49.520004
 H         -56.142693     -146.112274      -47.933796
 H         -54.635704     -145.536453      -47.292828
 H         -54.179085     -145.660019      -51.555157
 H         -52.497204     -145.231827      -51.278046
 H         -55.496628     -143.558563      -48.667801
 H         -55.809906     -144.673843      -50.064667
 H         -53.817879     -143.253525      -50.436951
 H         -52.981937     -144.112930      -49.052471
