20
 generated by VMD
 C         -52.980232     -146.836334      -45.095383
 N         -52.187481     -147.223404      -44.339073
 H         -55.053417     -146.824661      -48.265820
 H         -53.738388     -146.355011      -45.753357
 C         -54.441795     -145.861557      -48.270508
 C         -53.152554     -145.677078      -49.179386
 C         -55.108852     -144.590591      -47.827179
 C         -53.323940     -144.708603      -50.353416
 C         -55.282856     -143.592789      -49.064701
 C         -53.993126     -143.407944      -49.832691
 H         -52.758106     -146.670532      -49.562420
 H         -52.453190     -145.167633      -48.552601
 H         -56.074032     -144.935730      -47.422802
 H         -54.507320     -144.147888      -47.078514
 H         -54.165562     -145.057281      -51.058167
 H         -52.210533     -144.592529      -50.811172
 H         -55.618816     -142.615128      -48.529907
 H         -56.088795     -143.897903      -49.682846
 H         -54.245720     -142.849335      -50.749332
 H         -53.252480     -142.773056      -49.400414
