20
 generated by VMD
 C         -11.736524      -41.408783       -6.562006
 N         -11.122839      -42.313057       -6.390000
 H         -14.649538      -42.333542       -8.204557
 H         -15.049098      -41.202209       -9.586927
 C         -15.266315      -42.211941       -9.157449
 C         -16.746305      -42.413647       -8.878726
 C         -14.785857      -43.213985      -10.215309
 C         -17.576086      -42.531456      -10.127947
 C         -15.602715      -43.190548      -11.463537
 C         -17.010962      -43.558403      -11.084656
 H         -17.152189      -41.559807       -8.275389
 H         -16.803083      -43.324993       -8.260639
 H         -13.690179      -43.026108      -10.450477
 H         -14.735634      -44.227150       -9.792754
 H         -17.710131      -41.558418      -10.657833
 H         -18.650448      -42.770340       -9.989953
 H         -15.177958      -43.804905      -12.211728
 H         -15.598402      -42.126171      -11.821826
 H         -17.677711      -43.529823      -11.943715
 H         -17.014620      -44.524788      -10.618418
