20
 generated by VMD
 C         -28.438471      -85.841125      -26.876347
 N         -27.409180      -85.706413      -26.328846
 H         -31.313625      -85.146858      -25.733644
 H         -29.433622      -85.817032      -27.297619
 C         -31.852425      -86.044403      -25.665226
 C         -32.499561      -86.512512      -24.330919
 C         -32.053211      -86.978058      -26.905943
 C         -33.885063      -87.224052      -24.644039
 C         -33.459053      -87.464920      -27.052998
 C         -33.858021      -88.164795      -25.831018
 H         -32.548294      -85.629784      -23.591122
 H         -31.910358      -87.226639      -23.785839
 H         -31.732616      -86.426048      -27.769289
 H         -31.360260      -87.781837      -26.649353
 H         -34.730251      -86.427437      -24.801302
 H         -34.460316      -87.772804      -23.880941
 H         -33.531567      -88.171967      -27.861656
 H         -34.105629      -86.562401      -27.417875
 H         -34.937115      -88.601875      -26.010075
 H         -33.130554      -89.007523      -25.660389
