20
 generated by VMD
 C         -13.032524      -30.215879       -8.340081
 N         -13.863344      -30.406601       -9.070067
 H         -10.942902      -31.057606       -5.247242
 H         -10.918873      -31.535812       -3.497716
 C         -10.849080      -31.940392       -4.566118
 C          -9.402428      -32.527641       -4.802427
 C         -11.907035      -32.958645       -4.914359
 C          -9.276660      -33.916908       -4.147787
 C         -11.791765      -34.274704       -4.255269
 C         -10.405252      -34.852100       -4.525000
 H          -8.539542      -31.852537       -4.520235
 H          -9.186248      -32.649796       -5.888089
 H         -12.859916      -32.494194       -4.692700
 H         -11.936093      -33.020821       -5.991966
 H          -9.077799      -33.951870       -3.082195
 H          -8.343698      -34.359009       -4.487004
 H         -12.599090      -34.879704       -4.626907
 H         -12.019264      -34.282600       -3.138117
 H         -10.287956      -35.698997       -3.909548
 H         -10.267696      -35.179012       -5.565136
