20
 generated by VMD
 C         -20.104265      -61.866447      -17.730099
 N         -19.675196      -61.594410      -16.654778
 H         -21.880238      -65.029671      -16.732761
 H         -20.563330      -61.901058      -18.676119
 C         -22.940172      -65.102180      -17.016935
 C         -23.144655      -64.327492      -18.290257
 C         -24.072100      -65.210884      -16.083113
 C         -24.457937      -64.744568      -18.939592
 C         -25.354906      -65.819160      -16.729879
 C         -25.567978      -64.933006      -17.954538
 H         -22.332405      -64.400757      -18.955570
 H         -23.208786      -63.334255      -18.041063
 H         -23.812807      -65.994591      -15.271066
 H         -24.226971      -64.192680      -15.749803
 H         -24.225960      -65.615570      -19.530209
 H         -24.724684      -63.950706      -19.600533
 H         -26.187353      -65.972816      -15.966299
 H         -25.213875      -66.884804      -17.037691
 H         -26.471123      -65.198380      -18.560970
 H         -25.813211      -63.912922      -17.655544
