20
 generated by VMD
 C          -2.993979      -17.690790        2.721903
 N          -2.775682      -17.797634        1.632110
 H          -5.276993      -19.281820        0.907286
 H          -5.436688      -20.148800       -0.567420
 C          -5.854867      -19.310133       -0.001751
 C          -5.506475      -17.989473       -0.779208
 C          -7.398500      -19.472612        0.285490
 C          -6.389918      -17.890163       -1.987370
 C          -8.167223      -19.502285       -1.056660
 C          -7.877450      -18.231489       -1.767937
 H          -4.433238      -18.098032       -1.121994
 H          -5.556848      -17.130421       -0.105539
 H          -7.478658      -20.437527        0.726560
 H          -7.773002      -18.722763        0.858540
 H          -6.059380      -18.629730       -2.728762
 H          -6.333813      -16.907152       -2.334591
 H          -9.277045      -19.610340       -0.878711
 H          -7.793420      -20.400471       -1.588652
 H          -8.347396      -18.225618       -2.749293
 H          -8.368820      -17.422855       -1.220090
