20
 generated by VMD
 C         -77.005928     -203.538315      -66.772995
 N         -77.832878     -204.178833      -66.255814
 H         -75.596085     -200.668350      -68.376068
 H         -76.370132     -203.007782      -67.530365
 C         -74.826492     -200.054413      -68.912567
 C         -74.783600     -198.559586      -68.787483
 C         -73.785637     -200.712814      -69.760391
 C         -73.387978     -197.959351      -69.030388
 C         -72.884079     -199.765366      -70.644440
 C         -73.105186     -198.308060      -70.513603
 H         -74.914612     -198.349213      -67.687584
 H         -75.499283     -197.976761      -69.328003
 H         -73.147606     -201.253708      -68.977356
 H         -73.971359     -201.610168      -70.303421
 H         -72.643631     -198.503738      -68.410858
 H         -73.444130     -196.867783      -68.713196
 H         -72.946754     -200.007889      -71.727287
 H         -71.812592     -199.935150      -70.341179
 H         -72.169594     -197.710434      -70.930511
 H         -73.921097     -198.003769      -71.216026
