20
 generated by VMD
 C         -56.648178     -150.017685      -47.864113
 N         -57.631660     -150.541000      -48.311440
 H         -53.427010     -148.639877      -47.338333
 H         -55.697433     -149.730545      -47.303944
 C         -53.954151     -148.442947      -48.291607
 C         -53.341259     -149.096405      -49.536617
 C         -54.792744     -147.229370      -48.596947
 C         -54.267063     -148.993301      -50.731873
 C         -55.560486     -147.043243      -49.955605
 C         -54.769558     -147.645630      -51.070652
 H         -52.971687     -150.079117      -49.138351
 H         -52.400475     -148.631424      -49.755737
 H         -55.646473     -147.279221      -47.897633
 H         -54.324497     -146.327316      -48.406929
 H         -55.061741     -149.726868      -50.950443
 H         -53.527088     -149.104218      -51.510086
 H         -55.794662     -145.936096      -50.053143
 H         -56.527260     -147.465240      -49.726433
 H         -55.372566     -147.589691      -51.997345
 H         -53.927055     -146.994812      -51.253304
