20
 generated by VMD
 C         -50.583469     -145.030121      -45.028004
 N         -50.705879     -145.852570      -44.149700
 H         -53.666241     -144.451660      -46.652866
 H         -50.364094     -144.368805      -45.843559
 C         -53.540901     -143.463028      -47.045307
 C         -52.634090     -143.366562      -48.178093
 C         -54.698647     -142.474884      -47.042515
 C         -53.289268     -143.487137      -49.531021
 C         -55.458794     -142.606613      -48.334129
 C         -54.518974     -142.411713      -49.671757
 H         -51.895939     -144.158875      -48.163586
 H         -52.167149     -142.339630      -48.079018
 H         -55.367363     -142.814987      -46.280609
 H         -54.403496     -141.542542      -46.812317
 H         -53.740532     -144.538177      -49.703163
 H         -52.664520     -143.335281      -50.423927
 H         -56.322407     -141.882843      -48.323486
 H         -55.975964     -143.609039      -48.419834
 H         -54.985538     -142.746552      -50.614021
 H         -54.039291     -141.417969      -49.776184
