20
 generated by VMD
 C         -63.313358     -174.518860      -56.550278
 N         -62.334774     -174.920486      -56.101738
 H         -66.430428     -172.997711      -58.321587
 H         -64.203247     -174.036819      -56.926723
 C         -65.599419     -172.350906      -58.609840
 C         -65.583862     -171.019455      -58.171822
 C         -64.699097     -172.844406      -59.563370
 C         -64.233177     -170.408096      -58.088634
 C         -63.322311     -172.143570      -59.522583
 C         -63.470871     -170.610611      -59.438908
 H         -65.914597     -171.078049      -57.156567
 H         -66.371262     -170.414566      -58.744598
 H         -64.630379     -173.925217      -59.394978
 H         -65.122253     -172.805573      -60.555889
 H         -63.559856     -170.829697      -57.203815
 H         -64.397957     -169.280823      -57.884808
 H         -62.672146     -172.376892      -60.374786
 H         -62.675522     -172.613510      -58.698757
 H         -62.509193     -170.105530      -59.512157
 H         -64.089104     -170.218979      -60.309669
