20
 generated by VMD
 C         -48.763790     -126.450691      -38.676907
 N         -49.439533     -127.393425      -38.503136
 H         -46.282742     -123.977684      -38.589497
 H         -48.188251     -125.565346      -38.724545
 C         -45.650833     -123.642029      -39.404285
 C         -44.486233     -124.459450      -39.630959
 C         -45.733791     -122.291718      -40.100952
 C         -43.999714     -124.519264      -41.064297
 C         -45.296810     -122.375458      -41.534512
 C         -44.136784     -123.261276      -41.916912
 H         -44.769333     -125.421852      -39.098312
 H         -43.654003     -124.142822      -39.014057
 H         -46.684067     -121.885643      -39.906067
 H         -45.054806     -121.641998      -39.480804
 H         -44.814453     -125.169662      -41.463390
 H         -43.036934     -125.050575      -41.296055
 H         -45.013245     -121.409439      -42.058197
 H         -46.188046     -122.644226      -42.212597
 H         -43.978485     -123.514816      -42.976810
 H         -43.274803     -122.685951      -41.702827
