20
 generated by VMD
 C         -13.435291      -45.150993       -5.931819
 N         -14.353112      -44.658348       -6.364623
 H         -15.200664      -44.463940       -8.977134
 H         -14.331050      -43.764359      -10.479877
 C         -15.252213      -44.286724      -10.068904
 C         -16.475807      -43.382217      -10.264265
 C         -15.619373      -45.687565      -10.678559
 C         -16.969290      -43.133453      -11.714856
 C         -16.236683      -45.486828      -12.081824
 C         -17.342905      -44.443840      -12.311082
 H         -16.162691      -42.464565       -9.774941
 H         -17.384596      -43.818127       -9.764334
 H         -14.748869      -46.388893      -10.779482
 H         -16.465273      -46.098179      -10.013448
 H         -16.210543      -42.627998      -12.294673
 H         -17.823492      -42.450256      -11.627327
 H         -16.626791      -46.450008      -12.392807
 H         -15.384678      -45.193855      -12.774198
 H         -17.611298      -44.286709      -13.361557
 H         -18.244781      -44.931458      -11.820129
