20
 generated by VMD
 C         -20.000896      -59.336788      -17.403341
 N         -19.322281      -58.882298      -18.247972
 H         -22.715300      -59.765457      -16.174744
 H         -20.348900      -59.648399      -16.521238
 C         -22.871521      -60.830612      -16.129305
 C         -23.463125      -61.615379      -17.226418
 C         -22.733910      -61.402493      -14.677027
 C         -22.890726      -63.049957      -17.124281
 C         -22.483484      -62.865173      -14.767651
 C         -23.391161      -63.576786      -15.804494
 H         -23.221703      -61.110352      -18.244625
 H         -24.615231      -61.602371      -17.066889
 H         -22.023630      -60.971668      -14.015903
 H         -23.629002      -61.160831      -14.078835
 H         -21.803631      -62.978088      -17.075758
 H         -23.238899      -63.644703      -17.905704
 H         -22.780495      -63.244110      -13.803049
 H         -21.391624      -63.059227      -14.777384
 H         -23.228081      -64.630768      -15.801792
 H         -24.466648      -63.285645      -15.677481
