20
 generated by VMD
 C         -60.851418     -155.156631      -52.652172
 N         -60.734234     -154.075348      -52.156105
 H         -57.895573     -154.166794      -52.787296
 H         -60.809788     -156.174713      -53.107552
 C         -57.074230     -154.167679      -52.076359
 C         -57.502548     -154.096344      -50.605888
 C         -55.789051     -153.534027      -52.469852
 C         -56.318455     -154.425980      -49.700470
 C         -54.643635     -153.993851      -51.550076
 C         -54.942211     -153.739883      -50.127979
 H         -58.234615     -154.830887      -50.310177
 H         -57.837444     -153.080582      -50.505402
 H         -55.488441     -153.770599      -53.472702
 H         -55.949276     -152.403275      -52.479023
 H         -56.202900     -155.454086      -49.898869
 H         -56.640106     -154.473465      -48.674484
 H         -53.831200     -153.438599      -51.902882
 H         -54.336323     -155.071793      -51.627819
 H         -54.101254     -154.323013      -49.598076
 H         -54.977314     -152.745956      -49.853294
