20
 generated by VMD
 C         -49.944355     -127.652435      -39.163109
 N         -49.275608     -126.711884      -39.051231
 H         -47.147995     -126.075722      -40.976856
 H         -50.568157     -128.555725      -39.201008
 C         -46.272659     -125.495461      -41.099697
 C         -44.961639     -126.019142      -40.495167
 C         -46.554039     -124.015259      -41.211079
 C         -43.814388     -125.087036      -40.730003
 C         -45.318050     -123.232262      -41.447948
 C         -44.111721     -123.598633      -40.551064
 H         -44.747398     -126.980194      -41.014584
 H         -45.035137     -126.179718      -39.478741
 H         -47.351860     -123.979660      -42.055721
 H         -47.165936     -123.549232      -40.331890
 H         -43.620304     -125.182098      -41.773560
 H         -42.984268     -125.474190      -40.183762
 H         -45.583626     -122.065155      -41.275330
 H         -45.235703     -123.372849      -42.572002
 H         -43.197704     -123.061058      -40.798294
 H         -44.402943     -123.389565      -39.464798
