20
 generated by VMD
 C         -70.591850     -197.548035      -64.747200
 N         -69.844116     -197.823975      -65.607040
 H         -72.890518     -196.669327      -66.156250
 H         -71.079620     -197.162964      -63.866783
 C         -73.365753     -195.857788      -66.676758
 C         -73.070778     -194.442947      -66.311615
 C         -74.373917     -196.044495      -67.748215
 C         -72.867142     -193.503082      -67.513191
 C         -74.756050     -194.748962      -68.535164
 C         -73.507378     -193.991791      -68.841171
 H         -72.314697     -194.262711      -65.516357
 H         -73.959724     -194.090057      -65.691116
 H         -74.082123     -196.897766      -68.485855
 H         -75.373245     -196.375763      -67.378326
 H         -71.778893     -193.297424      -67.599106
 H         -73.324608     -192.557632      -67.211708
 H         -75.492676     -194.088623      -68.065163
 H         -75.269646     -195.108231      -69.471390
 H         -72.698036     -194.723694      -69.263466
 H         -73.560760     -193.077164      -69.467628
