20
 generated by VMD
 C         -40.159859     -104.744186      -36.014668
 N         -39.474789     -104.655174      -36.943802
 H         -40.456673     -107.832886      -35.120560
 H         -40.786453     -104.729698      -35.146786
 C         -39.969723     -108.013611      -34.174377
 C         -38.842125     -107.069389      -33.701523
 C         -40.068703     -109.399315      -33.468838
 C         -38.823215     -107.029472      -32.188290
 C         -39.985039     -109.345314      -32.041546
 C         -38.794804     -108.405602      -31.555792
 H         -39.120655     -105.998497      -33.907467
 H         -37.882816     -107.357094      -34.236904
 H         -41.061684     -109.707474      -33.903446
 H         -39.279720     -110.022636      -33.899780
 H         -39.715664     -106.463173      -31.817995
 H         -37.897377     -106.410362      -31.918098
 H         -39.808853     -110.264893      -31.408758
 H         -40.936584     -109.006828      -31.650213
 H         -38.675381     -108.244011      -30.439257
 H         -37.790073     -108.780090      -31.833975
