20
 generated by VMD
 C         -11.945024      -25.577991       -0.764229
 N         -12.528224      -25.577145        0.176560
 H          -8.447018      -26.690130       -1.816339
 H          -9.273788      -25.856192       -3.131723
 C          -8.314717      -26.031876       -2.711908
 C          -7.404474      -26.837355       -3.618090
 C          -7.661955      -24.764139       -2.254798
 C          -7.108748      -26.017458       -4.821956
 C          -7.381485      -23.912483       -3.531674
 C          -6.446613      -24.692383       -4.493778
 H          -7.897055      -27.779221       -3.809516
 H          -6.551996      -27.061283       -3.075563
 H          -8.351521      -24.208645       -1.675762
 H          -6.757529      -24.867205       -1.596218
 H          -7.983340      -25.845486       -5.408710
 H          -6.361347      -26.448246       -5.449771
 H          -6.890085      -22.994993       -3.179372
 H          -8.340497      -23.707003       -4.012017
 H          -6.440244      -24.064211       -5.384364
 H          -5.413313      -24.930956       -4.071362
