20
 generated by VMD
 C         -73.850945     -201.575119      -65.423187
 N         -72.898628     -201.028458      -65.776260
 H         -75.223824     -198.157990      -66.936882
 H         -74.749367     -201.865479      -64.897430
 C         -74.696167     -197.673981      -67.740410
 C         -74.876785     -196.232056      -68.072884
 C         -74.406120     -198.400497      -68.954468
 C         -73.523811     -195.642944      -68.418335
 C         -73.518639     -197.632248      -70.016685
 C         -72.625610     -196.642654      -69.373268
 H         -75.218239     -195.614822      -67.273010
 H         -75.709908     -196.128174      -68.906288
 H         -73.891563     -199.282852      -68.663429
 H         -75.287918     -198.783813      -69.400826
 H         -73.023949     -195.166153      -67.565247
 H         -73.736572     -194.747940      -69.061089
 H         -74.322044     -197.066086      -70.559578
 H         -73.040649     -198.336563      -70.663933
 H         -71.882736     -197.314529      -68.714340
 H         -71.990242     -196.184982      -70.075974
