20
 generated by VMD
 C         -13.659219      -28.729528       -6.816308
 N         -13.211374      -28.852760       -7.834322
 H         -11.943793      -30.864103       -4.903631
 H         -10.690156      -29.748203       -4.440284
 C         -10.887388      -30.864250       -4.553581
 C         -10.036284      -31.564516       -5.573971
 C         -10.894426      -31.476572       -3.183350
 C          -8.620583      -31.791384       -5.021414
 C          -9.581703      -31.919689       -2.724389
 C          -8.732767      -32.637600       -3.790505
 H         -10.165072      -30.978430       -6.574363
 H         -10.437041      -32.538052       -5.724387
 H         -11.339097      -30.817488       -2.422684
 H         -11.580140      -32.350811       -3.220743
 H          -8.219930      -30.756311       -4.869975
 H          -7.968832      -32.278328       -5.804028
 H          -9.709437      -32.535351       -1.854713
 H          -8.969538      -31.031706       -2.413614
 H          -7.809212      -32.995319       -3.325919
 H          -9.270399      -33.622032       -4.042537
