20
 generated by VMD
 C         -60.174725     -156.532288      -55.573517
 N         -60.857483     -155.636795      -56.016472
 H         -59.838428     -157.949875      -52.867157
 H         -59.523510     -157.379929      -55.422478
 C         -58.694790     -157.979111      -52.786289
 C         -57.779575     -156.809860      -52.621517
 C         -58.256927     -159.235352      -52.169113
 C         -57.320248     -156.681107      -51.153965
 C         -57.959129     -159.080170      -50.727978
 C         -56.918873     -158.030853      -50.584610
 H         -58.155582     -155.863251      -53.124546
 H         -56.960030     -157.077499      -53.380932
 H         -59.112080     -159.931152      -52.213398
 H         -57.423851     -159.735748      -52.793930
 H         -58.152000     -156.337463      -50.633183
 H         -56.449120     -156.018127      -50.995609
 H         -57.458912     -160.063156      -50.389923
 H         -58.959438     -158.959702      -50.189556
 H         -56.632912     -157.898163      -49.567688
 H         -56.052895     -158.241928      -51.281708
