20
 generated by VMD
 C         -13.972959      -43.205757       -6.458006
 N         -13.036197      -43.620049       -6.004897
 H         -15.013222      -45.136654       -8.926321
 H         -14.266768      -43.847313       -9.912512
 C         -15.157867      -44.522308       -9.802279
 C         -16.386600      -43.638767       -9.536633
 C         -15.415357      -45.370407      -11.034572
 C         -16.869122      -42.785381      -10.744052
 C         -16.056421      -44.590099      -12.224920
 C         -17.172403      -43.657204      -11.934432
 H         -16.141554      -42.927349       -8.759402
 H         -17.154629      -44.352989       -9.275899
 H         -14.486496      -45.826210      -11.355887
 H         -16.094513      -46.156101      -10.836679
 H         -16.057917      -42.057819      -10.976611
 H         -17.771654      -42.225170      -10.460206
 H         -16.238520      -45.354774      -12.927513
 H         -15.298583      -43.930733      -12.696347
 H         -17.355719      -43.025043      -12.842546
 H         -18.137939      -44.176765      -11.734990
