20
 generated by VMD
 C         -15.270765      -47.391907       -6.247005
 N         -15.409565      -46.785374       -5.326827
 H         -16.307487      -46.750698       -9.834831
 H         -15.017900      -46.450287      -11.114721
 C         -16.108538      -46.390915      -10.834651
 C         -16.440237      -44.881950      -10.911623
 C         -17.006836      -47.157822      -11.789291
 C         -16.317795      -44.331932      -12.314510
 C         -16.862556      -46.612724      -13.269931
 C         -17.104321      -45.113865      -13.328540
 H         -15.778481      -44.348846      -10.255604
 H         -17.436281      -44.641109      -10.542857
 H         -16.867474      -48.208393      -11.750765
 H         -18.045551      -47.048306      -11.476455
 H         -15.327879      -44.139759      -12.700024
 H         -16.760403      -43.333363      -12.215892
 H         -17.482071      -47.216709      -13.905495
 H         -15.815472      -46.891766      -13.612227
 H         -17.031246      -44.666786      -14.306378
 H         -18.176706      -44.997070      -13.021031
