20
 generated by VMD
 C         -38.751659      -98.751892      -27.735350
 N         -38.448997      -99.822838      -27.461990
 H         -37.331921      -97.342834      -31.106867
 H         -38.946365      -97.675209      -27.889135
 C         -36.401985      -97.690254      -30.876341
 C         -35.626423      -98.229980      -31.969139
 C         -35.723701      -97.293732      -29.555046
 C         -34.395428      -97.283463      -32.260147
 C         -34.482731      -96.495613      -29.924726
 C         -33.563873      -96.912773      -31.020124
 H         -36.090008      -98.302612      -33.006149
 H         -35.364651      -99.268494      -31.713041
 H         -36.385204      -96.630882      -28.927521
 H         -35.499100      -98.206245      -28.960777
 H         -34.822624      -96.364288      -32.800068
 H         -33.712597      -97.963875      -32.909428
 H         -33.872822      -96.258919      -29.058977
 H         -34.926510      -95.497498      -30.305153
 H         -32.811462      -96.171982      -31.022316
 H         -33.054932      -97.866997      -30.791552
