20
 generated by VMD
 C         -50.021351     -142.926590      -45.437508
 N         -48.933735     -143.185577      -45.319290
 H         -51.994171     -139.980850      -45.564285
 H         -51.014679     -142.708832      -45.674404
 C         -52.641285     -140.511688      -46.266258
 C         -52.057320     -140.903564      -47.568363
 C         -54.121941     -140.531952      -45.987259
 C         -52.778828     -142.067154      -48.199890
 C         -54.816177     -141.803146      -46.595612
 C         -54.373775     -141.834869      -48.150757
 H         -51.004520     -141.192261      -47.457584
 H         -52.130917     -140.103790      -48.272388
 H         -54.239624     -140.571350      -44.844154
 H         -54.700493     -139.590973      -46.461647
 H         -52.480118     -142.843094      -47.630974
 H         -52.475925     -142.220322      -49.176064
 H         -55.868710     -141.654007      -46.463596
 H         -54.587185     -142.782623      -46.242405
 H         -54.839836     -142.612152      -48.646778
 H         -54.726486     -140.980927      -48.631916
