20
 generated by VMD
 C         -68.254478     -179.628128      -58.666965
 N         -67.755905     -179.631836      -57.614559
 H         -66.289253     -176.601471      -59.766052
 H         -68.623756     -179.657623      -59.699787
 C         -65.645546     -175.850586      -59.754929
 C         -66.046387     -174.772629      -60.726513
 C         -64.241310     -176.166351      -59.489048
 C         -65.143990     -173.526855      -60.586445
 C         -63.274948     -174.927536      -59.591171
 C         -63.620010     -173.905380      -60.719345
 H         -67.027153     -174.360260      -60.650295
 H         -65.953102     -175.374237      -61.721409
 H         -64.189125     -176.468323      -58.422958
 H         -63.798153     -177.058807      -60.122738
 H         -65.391525     -172.979523      -59.740589
 H         -65.368599     -172.948685      -61.445122
 H         -62.304062     -175.439941      -59.767406
 H         -63.243305     -174.410507      -58.657806
 H         -63.023624     -172.962952      -60.664062
 H         -63.167171     -174.363739      -61.689819
