20
 generated by VMD
 C         -12.006111      -31.342846       -8.307624
 N         -11.996380      -30.640129       -7.422105
 H         -11.572813      -34.692577       -7.829580
 H         -12.953066      -34.035820       -6.814085
 C         -11.944462      -34.604443       -6.815309
 C         -10.847167      -33.852665       -6.184419
 C         -12.101342      -36.003437       -6.230232
 C         -11.214182      -33.701492       -4.719876
 C         -12.475528      -35.909500       -4.693757
 C         -11.485534      -35.022358       -3.959730
 H         -10.794745      -32.818302       -6.580203
 H          -9.900084      -34.399544       -6.361125
 H         -12.917682      -36.555073       -6.750537
 H         -11.187728      -36.600407       -6.295324
 H         -12.089899      -33.069874       -4.632675
 H         -10.311514      -33.231571       -4.346311
 H         -12.499311      -36.949368       -4.321981
 H         -13.449492      -35.535709       -4.636184
 H         -11.874139      -34.723831       -2.935952
 H         -10.550131      -35.518379       -3.766612
