20
 generated by VMD
 C         -50.603458     -130.903824      -46.454914
 N         -50.257584     -131.086365      -47.486740
 H         -48.508553     -131.943253      -44.311028
 H         -50.497849     -130.936935      -45.377308
 C         -48.608994     -132.297089      -43.326294
 C         -49.220165     -133.635437      -43.098274
 C         -48.498253     -131.445145      -42.152046
 C         -48.528378     -134.409210      -41.961994
 C         -47.911343     -132.193222      -40.912567
 C         -48.483788     -133.584732      -40.642433
 H         -49.103600     -134.214691      -43.980473
 H         -50.338505     -133.472519      -42.936966
 H         -47.851910     -130.593292      -42.163956
 H         -49.421204     -131.042923      -41.896111
 H         -47.461060     -134.603500      -42.353130
 H         -49.041828     -135.405685      -41.840176
 H         -47.945538     -131.535156      -40.060173
 H         -46.817635     -132.436111      -41.145298
 H         -47.887623     -134.269165      -39.983150
 H         -49.461250     -133.531372      -40.264633
