20
 generated by VMD
 C         -38.734085     -113.695892      -35.704945
 N         -37.839001     -114.425514      -35.817245
 H         -41.355484     -114.771904      -35.674717
 H         -39.465775     -112.911903      -35.841110
 C         -42.277145     -114.412888      -36.171013
 C         -42.405945     -114.613411      -37.685608
 C         -43.537876     -114.252579      -35.312305
 C         -43.627270     -115.388733      -38.116444
 C         -44.493351     -115.316956      -35.756115
 C         -44.902393     -115.043907      -37.224873
 H         -41.589001     -115.224380      -38.203011
 H         -42.483185     -113.639824      -38.291943
 H         -43.235432     -114.112740      -34.214981
 H         -43.881931     -113.183624      -35.509998
 H         -43.462463     -116.510216      -38.069695
 H         -43.967312     -115.111229      -39.074505
 H         -45.490456     -115.249725      -35.151722
 H         -44.072517     -116.318649      -35.395988
 H         -45.704079     -115.772972      -37.599380
 H         -45.156799     -114.015625      -37.418041
