20
 generated by VMD
 C         -70.026978     -184.131577      -65.967751
 N         -69.010002     -183.933731      -66.509071
 H         -69.487045     -183.830383      -63.404312
 H         -70.888290     -184.381180      -65.426430
 C         -68.868889     -183.956116      -62.560226
 C         -69.173218     -184.711197      -61.354843
 C         -67.991783     -182.604553      -62.500980
 C         -67.850151     -184.745224      -60.531975
 C         -66.901817     -182.581436      -61.360504
 C         -67.335854     -183.335770      -60.175911
 H         -69.538872     -185.707657      -61.576427
 H         -69.935150     -184.282547      -60.657433
 H         -67.566055     -182.416351      -63.503510
 H         -68.545471     -181.702469      -62.355148
 H         -66.964249     -185.302017      -60.834908
 H         -68.132980     -185.107269      -59.541725
 H         -66.771790     -181.517654      -61.188759
 H         -65.864723     -182.899902      -61.683640
 H         -66.587639     -183.368179      -59.326836
 H         -68.196312     -182.872925      -59.952873
