20
 generated by VMD
 C         -69.876053     -197.034210      -65.717110
 N         -68.880249     -196.513336      -65.546974
 H         -71.606506     -194.067398      -65.061432
 H         -70.742813     -197.672424      -65.914886
 C         -72.415001     -193.809937      -65.784370
 C         -72.574089     -192.411148      -66.158958
 C         -72.969101     -194.968796      -66.649666
 C         -73.735893     -192.047729      -67.137169
 C         -74.213715     -194.561066      -67.393227
 C         -74.136421     -193.175751      -68.024666
 H         -71.732498     -192.107285      -66.652924
 H         -72.715355     -191.805969      -65.250359
 H         -72.132957     -195.177551      -67.294167
 H         -73.310501     -195.748276      -65.918449
 H         -73.389336     -191.155487      -67.642456
 H         -74.609268     -191.799820      -66.557007
 H         -75.027763     -194.610123      -66.686867
 H         -74.439400     -195.312546      -68.204208
 H         -73.321487     -193.266907      -68.906952
 H         -75.039749     -192.937012      -68.482178
