20
 generated by VMD
 C         -51.545990     -145.832230      -43.906998
 N         -51.432053     -146.439102      -44.944599
 H         -53.578262     -145.080002      -46.672192
 H         -51.660057     -145.200974      -43.039398
 C         -53.792595     -144.557068      -47.602512
 C         -52.893494     -144.433746      -48.772373
 C         -54.814373     -143.451797      -47.431404
 C         -53.453133     -143.957642      -50.011951
 C         -55.446342     -143.064713      -48.776501
 C         -54.263927     -142.708511      -49.778290
 H         -52.361160     -145.345764      -48.896381
 H         -52.168324     -143.617569      -48.486149
 H         -55.616108     -143.741882      -46.719723
 H         -54.194408     -142.693359      -46.929287
 H         -54.157249     -144.699127      -50.393997
 H         -52.648567     -143.770523      -50.766422
 H         -56.052528     -142.172760      -48.646282
 H         -56.136688     -143.831589      -49.095917
 H         -54.597649     -142.394577      -50.781998
 H         -53.710262     -141.888107      -49.407364
