20
 generated by VMD
 C         -19.773149      -58.642345      -17.188776
 N         -19.277157      -58.837055      -18.267679
 H         -22.518866      -59.746983      -16.302374
 H         -20.366573      -58.431293      -16.406750
 C         -22.699409      -60.804138      -16.160366
 C         -23.516079      -61.559231      -17.191973
 C         -22.649502      -61.233936      -14.736179
 C         -23.469650      -63.064095      -17.025471
 C         -22.195641      -62.681049      -14.732224
 C         -23.090073      -63.579556      -15.589783
 H         -23.291754      -61.219791      -18.265547
 H         -24.647217      -61.287922      -17.008207
 H         -21.993998      -60.603477      -14.255611
 H         -23.587675      -61.232628      -14.201914
 H         -22.735313      -63.444931      -17.703882
 H         -24.391405      -63.471668      -17.314842
 H         -22.262432      -63.011433      -13.702731
 H         -21.143494      -62.731419      -15.036439
 H         -22.527554      -64.494064      -15.739103
 H         -24.024151      -63.817650      -15.129243
