20
 generated by VMD
 C         -60.227913     -156.141357      -55.892323
 N         -60.597092     -155.095520      -55.554760
 H         -59.984131     -157.807343      -52.489296
 H         -59.859066     -157.173431      -55.975208
 C         -58.931446     -157.741013      -52.077126
 C         -58.254940     -156.389160      -52.234474
 C         -58.152084     -158.955612      -51.616611
 C         -57.197979     -156.043793      -51.071457
 C         -57.006042     -158.536713      -50.729698
 C         -56.202255     -157.289474      -51.022846
 H         -59.048428     -155.658752      -52.190346
 H         -57.626858     -156.121323      -53.126747
 H         -58.738102     -159.705750      -51.134323
 H         -57.641083     -159.360336      -52.537357
 H         -57.908600     -155.865768      -50.157619
 H         -56.560844     -155.166611      -51.074757
 H         -56.190891     -159.260712      -50.631958
 H         -57.410412     -158.483994      -49.591518
 H         -55.368076     -157.151382      -50.224224
 H         -55.624435     -157.432220      -51.887863
