20
 generated by VMD
 C         -33.210510      -96.730652      -25.333563
 N         -32.684875      -96.554153      -24.326097
 H         -34.561092      -93.713295      -27.547482
 H         -33.574772      -97.136139      -26.349031
 C         -34.691116      -93.379448      -28.579967
 C         -36.108395      -93.468430      -29.071671
 C         -33.462318      -93.165314      -29.301495
 C         -36.278465      -92.787689      -30.422270
 C         -33.757008      -92.303261      -30.505634
 C         -35.067097      -92.796829      -31.316998
 H         -36.795471      -93.157654      -28.209520
 H         -36.353085      -94.521103      -29.199997
 H         -32.791153      -92.560295      -28.598223
 H         -32.850727      -94.042389      -29.502960
 H         -36.468239      -91.699928      -30.266855
 H         -37.247433      -93.254547      -30.788889
 H         -32.885654      -92.437851      -31.239948
 H         -33.871342      -91.276825      -30.130766
 H         -35.212574      -92.168808      -32.124180
 H         -34.743076      -93.803833      -31.748722
