20
 generated by VMD
 C         -12.305607      -31.470186       -8.813952
 N         -12.390265      -30.635059       -8.048841
 H         -10.785289      -34.972759       -7.672729
 H         -11.944787      -33.891136       -6.942203
 C         -11.376126      -34.780514       -6.791988
 C         -10.393984      -34.594788       -5.674426
 C         -12.269959      -36.042240       -6.512375
 C         -11.104169      -34.470867       -4.343801
 C         -13.100224      -35.925621       -5.174592
 C         -12.113313      -35.624126       -4.005415
 H          -9.829608      -33.707638       -5.858016
 H          -9.727980      -35.493885       -5.604223
 H         -12.906146      -36.210938       -7.383061
 H         -11.652672      -36.938801       -6.429493
 H         -11.661812      -33.529747       -4.196198
 H         -10.304951      -34.483589       -3.617532
 H         -13.584263      -36.839596       -4.955557
 H         -13.890095      -35.058350       -5.212317
 H         -12.708887      -35.362778       -3.105683
 H         -11.583911      -36.576172       -3.711996
