20
 generated by VMD
 C         -59.238636     -168.327896      -55.319378
 N         -58.345478     -168.882645      -54.816551
 H         -62.581966     -169.223190      -55.755245
 H         -60.060535     -167.722275      -55.678143
 C         -62.649647     -168.350098      -56.343941
 C         -62.728737     -168.323654      -57.875462
 C         -62.823498     -167.051193      -55.567299
 C         -63.974915     -167.600647      -58.328739
 C         -64.115417     -166.396561      -56.065243
 C         -64.211502     -166.265991      -57.558109
 H         -62.745811     -169.347214      -58.411469
 H         -61.919544     -167.887054      -58.288349
 H         -62.906891     -167.426224      -54.515747
 H         -61.933670     -166.426239      -55.748821
 H         -64.858826     -168.163666      -57.987587
 H         -64.213684     -167.428482      -59.383507
 H         -64.184998     -165.576721      -55.369015
 H         -65.055679     -166.934723      -55.686230
 H         -65.093910     -165.753296      -57.982002
 H         -63.269012     -165.644547      -57.813015
