20
 generated by VMD
 C         -68.709534     -193.743286      -64.586067
 N         -68.449593     -194.342468      -65.519386
 H         -70.931343     -193.551102      -67.655197
 H         -69.154068     -193.121536      -63.843521
 C         -71.819481     -193.045334      -67.235825
 C         -71.583824     -191.804520      -66.370346
 C         -73.166801     -193.706589      -67.257896
 C         -72.847420     -191.136032      -65.898407
 C         -74.153191     -193.289505      -66.207840
 C         -73.756943     -192.153473      -65.281883
 H         -70.974609     -191.192078      -66.948364
 H         -70.920158     -192.138321      -65.428711
 H         -73.629570     -193.580765      -68.218124
 H         -73.016403     -194.771561      -67.162628
 H         -73.344063     -190.659683      -66.755547
 H         -72.640648     -190.248077      -65.317062
 H         -74.438965     -194.136276      -65.617554
 H         -75.154076     -193.093307      -66.666138
 H         -74.662094     -191.725433      -64.877953
 H         -73.323456     -192.620422      -64.368011
