20
 generated by VMD
 C         -77.111649     -203.645966      -66.837524
 N         -77.937042     -204.296844      -66.380119
 H         -75.883888     -200.513367      -68.849335
 H         -76.486740     -203.126968      -67.481987
 C         -74.893806     -200.050583      -69.120224
 C         -74.764214     -198.606613      -68.541908
 C         -73.716537     -200.770859      -69.734886
 C         -73.489395     -197.894653      -69.205498
 C         -72.780632     -200.035461      -70.625687
 C         -73.134926     -198.455536      -70.513428
 H         -74.592537     -198.701172      -67.531044
 H         -75.734589     -198.096298      -68.685837
 H         -73.171425     -201.078995      -68.817474
 H         -74.214691     -201.666550      -70.058990
 H         -72.679268     -198.189774      -68.552246
 H         -73.499840     -196.825867      -69.295013
 H         -72.799141     -200.415039      -71.626350
 H         -71.795418     -200.138794      -70.292625
 H         -72.391830     -197.957672      -71.034805
 H         -73.955154     -198.248138      -71.264275
