20
 generated by VMD
 C         -69.871574     -183.117310      -65.886444
 N         -70.997978     -182.921265      -65.745827
 H         -67.361961     -183.421906      -63.175255
 H         -68.780014     -183.272308      -65.983231
 C         -67.295982     -182.989227      -62.192535
 C         -67.784843     -183.703033      -60.930344
 C         -67.403358     -181.418579      -62.146431
 C         -66.902138     -183.266830      -59.735806
 C         -66.490059     -181.042816      -60.969097
 C         -66.770607     -181.745575      -59.652946
 H         -67.884247     -184.787689      -61.052094
 H         -68.764977     -183.505493      -60.602921
 H         -67.193352     -180.854691      -63.166416
 H         -68.385063     -181.093842      -61.898083
 H         -65.773621     -183.565887      -59.643181
 H         -67.408493     -183.701385      -58.824329
 H         -66.506569     -179.967102      -60.930885
 H         -65.459686     -181.373398      -61.158886
 H         -66.060303     -181.325760      -58.806320
 H         -67.750397     -181.352448      -59.264824
