20
 generated by VMD
 C         -63.264290     -174.853561      -55.147274
 N         -62.755123     -174.307114      -56.065517
 H         -64.965942     -173.293808      -57.796650
 H         -63.841488     -175.348343      -54.375275
 C         -64.672798     -172.406326      -58.336273
 C         -64.633728     -171.167206      -57.493301
 C         -64.427002     -172.485031      -59.768433
 C         -63.959850     -169.945114      -58.131813
 C         -63.685127     -171.228668      -60.353775
 C         -64.147446     -169.849609      -59.782555
 H         -64.192436     -171.480392      -56.434994
 H         -65.633438     -171.021210      -57.352390
 H         -63.821476     -173.478012      -59.882744
 H         -65.515076     -172.685211      -60.232376
 H         -62.937637     -169.955902      -57.938873
 H         -64.451538     -169.099213      -57.685776
 H         -63.825367     -171.214279      -61.414616
 H         -62.591011     -171.390793      -60.297592
 H         -63.632042     -168.979401      -60.216026
 H         -65.211761     -169.761932      -59.900551
