20
 generated by VMD
 C         -28.467802      -74.019867      -18.782232
 N         -29.449062      -73.643585      -18.247528
 H         -25.098080      -72.391747      -18.716175
 H         -27.676085      -74.318626      -19.321682
 C         -25.507845      -72.416519      -19.788200
 C         -24.928885      -73.477203      -20.634851
 C         -25.859047      -71.077881      -20.373980
 C         -25.481546      -73.519150      -22.111515
 C         -26.225496      -71.032166      -22.019909
 C         -25.488007      -72.216125      -22.844927
 H         -24.895916      -74.407509      -20.244850
 H         -23.830378      -73.232208      -20.657831
 H         -26.716112      -70.573853      -19.870239
 H         -24.998882      -70.449287      -20.119167
 H         -26.449991      -74.061455      -22.210566
 H         -24.783381      -74.115677      -22.729610
 H         -25.933933      -70.091995      -22.372662
 H         -27.292894      -71.203293      -22.071411
 H         -25.838032      -72.314980      -23.858034
 H         -24.394451      -71.932785      -22.917986
