20
 generated by VMD
 C          -1.825774      -17.568861        2.057580
 N          -1.613528      -17.138010        3.067975
 H          -5.536456      -17.242567        0.972018
 H          -4.961539      -18.520668        0.002027
 C          -5.839437      -17.924761        0.168991
 C          -6.187378      -17.046339       -1.029617
 C          -6.973041      -18.754339        0.582418
 C          -6.973359      -17.577787       -2.164305
 C          -7.676731      -19.433067       -0.574421
 C          -8.147384      -18.398306       -1.645798
 H          -5.287672      -16.584286       -1.391034
 H          -6.758348      -16.184040       -0.553140
 H          -6.762012      -19.545866        1.397662
 H          -7.744840      -18.162312        1.109205
 H          -6.380313      -18.157486       -2.808759
 H          -7.297170      -16.809820       -2.882932
 H          -8.469618      -20.113419       -0.214972
 H          -6.956464      -20.132042       -1.088451
 H          -8.658347      -18.912178       -2.489046
 H          -8.866376      -17.679138       -1.251641
