20
 generated by VMD
 C         -61.628536     -156.053436      -54.379623
 N         -61.084263     -155.093323      -54.098927
 H         -58.847687     -155.089828      -51.914917
 H         -62.167633     -156.988968      -54.414188
 C         -57.794586     -155.109436      -51.593155
 C         -57.426884     -154.510071      -50.266994
 C         -56.700401     -155.479492      -52.550751
 C         -56.223000     -154.985046      -49.591846
 C         -55.476730     -156.094345      -51.761288
 C         -55.044590     -155.120255      -50.645672
 H         -58.207802     -154.605362      -49.499081
 H         -57.368954     -153.501328      -50.475403
 H         -56.891777     -156.260086      -53.380123
 H         -56.428566     -154.534470      -53.128559
 H         -56.406132     -155.950455      -49.184502
 H         -55.952911     -154.183167      -48.803047
 H         -54.664577     -156.226501      -52.551582
 H         -55.775795     -157.029846      -51.321190
 H         -54.160892     -155.670135      -50.103733
 H         -54.649178     -154.280304      -51.150478
