20
 generated by VMD
 C         -12.647823      -30.243526       -8.128157
 N         -13.126673      -30.669176       -7.218741
 H         -11.222769      -30.466110       -5.287997
 H         -10.663367      -30.938318       -3.669097
 C         -10.878489      -31.253637       -4.720794
 C          -9.560810      -31.825397       -5.318802
 C         -11.975307      -32.360622       -4.697352
 C          -9.150315      -33.103062       -4.518676
 C         -11.465161      -33.632530       -3.945219
 C         -10.211090      -34.157578       -4.621018
 H          -8.688723      -31.127239       -5.229307
 H          -9.699553      -32.080441       -6.366757
 H         -12.868918      -32.000645       -4.187129
 H         -12.186030      -32.575661       -5.754235
 H          -8.958021      -32.814686       -3.452902
 H          -8.172727      -33.431427       -4.946945
 H         -12.232174      -34.446899       -3.932051
 H         -11.247211      -33.351608       -2.892263
 H          -9.830023      -34.940258       -3.970915
 H         -10.398754      -34.436642       -5.655954
