20
 generated by VMD
 C         -25.725010      -71.224556      -16.929152
 N         -26.053146      -72.111481      -16.212383
 H         -23.888142      -68.689026      -19.066080
 H         -25.383055      -70.473503      -17.550467
 C         -24.642254      -69.247543      -19.629068
 C         -24.030952      -70.337914      -20.470596
 C         -25.856607      -68.624649      -20.108974
 C         -25.009535      -71.259247      -21.328327
 C         -26.698915      -69.469719      -20.943819
 C         -26.021126      -70.257545      -21.987780
 H         -23.452990      -71.084106      -19.792021
 H         -23.304338      -69.912735      -21.251974
 H         -26.448416      -68.141541      -19.330103
 H         -25.569118      -67.690506      -20.752277
 H         -25.531048      -71.818268      -20.528488
 H         -24.454067      -71.866158      -21.999788
 H         -27.492857      -68.982239      -21.464327
 H         -27.346663      -70.045883      -20.282921
 H         -26.608999      -70.829849      -22.719835
 H         -25.497721      -69.588554      -22.704210
