20
 generated by VMD
 C         -67.545181     -180.020798      -58.347851
 N         -68.356804     -179.999344      -59.149506
 H         -67.436447     -176.387390      -59.863529
 H         -66.830284     -180.124451      -57.532673
 C         -66.352791     -176.214661      -60.139301
 C         -66.095482     -175.340134      -61.421829
 C         -65.226349     -176.728134      -59.375282
 C         -64.824684     -174.514755      -61.203648
 C         -64.007042     -175.802261      -59.198322
 C         -63.666302     -175.232544      -60.518059
 H         -67.077118     -175.024002      -61.816113
 H         -65.821312     -176.031784      -62.199570
 H         -65.543228     -177.140656      -58.365665
 H         -64.771912     -177.620224      -59.877857
 H         -65.033287     -173.591644      -60.593315
 H         -64.502663     -174.012878      -62.202892
 H         -63.087856     -176.210983      -58.699398
 H         -64.451187     -174.985931      -58.659290
 H         -62.789429     -174.654343      -60.284966
 H         -63.149040     -175.938553      -61.149338
