20
 generated by VMD
 C         -58.564339     -161.801743      -56.485279
 N         -57.932697     -160.948105      -56.087727
 H         -59.626595     -164.950165      -55.248150
 H         -59.119965     -162.601059      -56.888638
 C         -60.286255     -164.272278      -54.813015
 C         -59.942970     -163.629181      -53.485588
 C         -61.704937     -164.370483      -55.317348
 C         -60.634171     -162.340881      -53.370064
 C         -62.518124     -163.226334      -54.807480
 C         -62.238415     -162.599976      -53.420219
 H         -58.850010     -163.390732      -53.449738
 H         -60.341549     -164.409286      -52.765522
 H         -61.669704     -164.311432      -56.431206
 H         -62.089199     -165.328278      -54.945423
 H         -60.453785     -161.679886      -54.267128
 H         -60.557968     -161.782349      -52.426773
 H         -63.478580     -163.524399      -54.866833
 H         -62.598793     -162.480103      -55.575958
 H         -62.803314     -161.661835      -53.370281
 H         -62.675968     -163.236786      -52.545776
