20
 generated by VMD
 C         -19.984764      -61.679203      -16.369946
 N         -19.889458      -61.099125      -17.361368
 H         -21.560656      -64.299896      -17.400703
 H         -20.274654      -62.174496      -15.552243
 C         -22.658819      -64.162331      -17.334686
 C         -23.407976      -63.706310      -18.485399
 C         -23.287497      -64.285080      -16.028847
 C         -24.576063      -64.645569      -18.759758
 C         -24.550943      -65.006584      -16.151581
 C         -25.391649      -64.793945      -17.481390
 H         -22.824389      -63.564747      -19.448357
 H         -23.844622      -62.728386      -18.266323
 H         -22.684669      -64.934509      -15.277779
 H         -23.500053      -63.333740      -15.562496
 H         -24.236986      -65.688980      -18.966557
 H         -25.272411      -64.238617      -19.596073
 H         -25.228064      -64.940948      -15.310636
 H         -24.307121      -66.052071      -16.141769
 H         -25.976112      -65.777527      -17.495035
 H         -26.111240      -64.040756      -17.250198
