20
 generated by VMD
 C         -22.609041      -52.284916      -11.724281
 N         -22.319365      -52.687782      -10.598604
 H         -19.960625      -52.555981      -14.224962
 H         -22.614094      -51.852806      -12.618624
 C         -18.899027      -52.299072      -13.865479
 C         -17.904999      -51.709930      -14.860159
 C         -18.409571      -52.957760      -12.620464
 C         -16.489817      -52.228931      -14.602866
 C         -17.215784      -52.229725      -12.071732
 C         -16.101820      -52.135704      -13.118370
 H         -17.998779      -50.601971      -14.841911
 H         -18.273748      -52.031990      -15.867703
 H         -19.175976      -53.003155      -11.853299
 H         -18.160290      -53.967960      -12.841159
 H         -15.709107      -51.737499      -15.228283
 H         -16.489403      -53.292107      -14.932478
 H         -16.919737      -52.897427      -11.255924
 H         -17.411995      -51.204597      -11.580500
 H         -15.550460      -51.176872      -13.087243
 H         -15.316287      -52.882381      -12.819929
