20
 generated by VMD
 C         -47.752094     -139.516281      -45.927650
 N         -46.670635     -139.058655      -46.214722
 H         -50.989723     -138.466125      -44.788338
 H         -48.584419     -140.229691      -45.765923
 C         -51.801617     -139.026596      -45.242214
 C         -51.945930     -139.361572      -46.763855
 C         -53.118534     -138.817581      -44.444778
 C         -52.975632     -140.419235      -47.046932
 C         -54.276566     -139.740540      -44.856625
 C         -54.327621     -139.910751      -46.397449
 H         -51.048737     -139.686600      -47.166950
 H         -52.234051     -138.456543      -47.284645
 H         -52.904404     -138.712723      -43.307484
 H         -53.435928     -137.717407      -44.692696
 H         -52.643997     -141.300217      -46.585041
 H         -53.159050     -140.574646      -48.119225
 H         -55.323875     -139.469223      -44.464787
 H         -53.992439     -140.721832      -44.439228
 H         -55.160412     -140.455353      -46.677181
 H         -54.739388     -139.023849      -46.837048
