20
 generated by VMD
 C         -28.392370      -81.335312      -27.631382
 N         -29.486403      -80.945549      -27.442175
 H         -29.060106      -82.811440      -24.582176
 H         -27.390497      -81.630844      -27.918062
 C         -29.849716      -83.455864      -24.229105
 C         -30.046602      -83.934860      -22.734516
 C         -30.598825      -84.399384      -25.267111
 C         -31.469261      -84.112350      -22.445930
 C         -31.976418      -84.739967      -24.847305
 C         -32.078499      -85.174278      -23.435944
 H         -29.761358      -83.193932      -22.067980
 H         -29.526529      -84.914955      -22.571512
 H         -30.757330      -83.887070      -26.260866
 H         -30.031990      -85.330391      -25.321482
 H         -32.097061      -83.250816      -22.643162
 H         -31.609283      -84.440987      -21.411709
 H         -32.403103      -85.439369      -25.580147
 H         -32.591179      -83.782761      -24.984447
 H         -33.111679      -85.230431      -23.120283
 H         -31.615902      -86.140686      -23.323217
