20
 generated by VMD
 C         -39.057785     -112.174049      -35.854488
 N         -38.487320     -111.599884      -36.710220
 H         -40.655720     -114.773689      -34.930920
 H         -39.490448     -112.937050      -35.172997
 C         -41.424034     -114.123627      -35.440395
 C         -41.752148     -114.441727      -36.915638
 C         -42.235107     -113.162010      -34.639488
 C         -43.275311     -114.438843      -37.184956
 C         -43.694115     -113.462051      -34.894337
 C         -44.051060     -113.390465      -36.353107
 H         -41.212914     -115.399284      -37.152828
 H         -41.298065     -113.571007      -37.430294
 H         -42.057514     -113.358025      -33.583679
 H         -41.850983     -112.226555      -35.005215
 H         -43.818508     -115.407837      -37.051441
 H         -43.445175     -114.060539      -38.162849
 H         -44.154263     -112.577728      -34.385044
 H         -44.118710     -114.327942      -34.254066
 H         -45.149746     -113.668823      -36.599686
 H         -43.754883     -112.442398      -36.894703
