20
 generated by VMD
 C         -30.183390      -80.192749      -26.403683
 N         -29.393452      -79.340004      -26.366474
 H         -28.318871      -82.780205      -25.454891
 H         -30.919722      -80.991173      -26.400541
 C         -29.081100      -82.832550      -24.736181
 C         -28.983379      -81.994781      -23.410568
 C         -30.109375      -84.063347      -24.702393
 C         -30.281881      -81.967079      -22.634140
 C         -31.202999      -84.070000      -23.588190
 C         -30.823597      -83.360458      -22.370323
 H         -28.658541      -80.916847      -23.630354
 H         -28.219170      -82.260452      -22.718445
 H         -30.508636      -84.054848      -25.726442
 H         -29.601505      -85.046127      -24.649120
 H         -30.932940      -81.366318      -23.240337
 H         -30.133665      -81.605766      -21.554832
 H         -31.557318      -85.085663      -23.504734
 H         -32.070999      -83.502396      -23.919149
 H         -31.740337      -83.547089      -21.690264
 H         -30.098658      -84.001854      -21.886551
