20
 generated by VMD
 C         -47.982533     -134.435715      -47.291691
 N         -48.003967     -133.793289      -48.212936
 H         -49.806492     -134.258209      -44.280666
 H         -47.715847     -134.848648      -46.375679
 C         -50.271263     -135.153854      -43.920872
 C         -50.574043     -136.317657      -44.845078
 C         -51.173950     -134.996613      -42.825523
 C         -50.836994     -137.650940      -44.062847
 C         -51.331039     -136.288452      -41.956894
 C         -51.680550     -137.450958      -42.857105
 H         -49.805565     -136.546417      -45.622787
 H         -51.505764     -136.118011      -45.381710
 H         -50.680904     -134.277878      -42.227924
 H         -52.163586     -134.527328      -42.999367
 H         -49.849628     -138.062149      -43.682102
 H         -51.188644     -138.344986      -44.818119
 H         -52.213402     -136.197571      -41.240669
 H         -50.371586     -136.360443      -41.404968
 H         -51.795940     -138.480820      -42.289677
 H         -52.821987     -137.406082      -43.220642
