20
 generated by VMD
 C         -27.487974      -72.767418      -17.999687
 N         -28.051662      -73.461365      -17.232199
 H         -24.873089      -70.653839      -18.721882
 H         -26.806131      -72.035957      -18.629168
 C         -25.068218      -70.829903      -19.761154
 C         -24.497074      -72.065811      -20.325815
 C         -25.582273      -69.760742      -20.645559
 C         -25.294710      -72.570648      -21.585236
 C         -26.513037      -70.409935      -21.696617
 C         -25.738237      -71.440842      -22.488674
 H         -24.439367      -72.982414      -19.514532
 H         -23.456905      -71.888283      -20.672453
 H         -26.181538      -68.920975      -20.083149
 H         -24.715458      -69.245865      -21.065813
 H         -26.143961      -73.254189      -21.321037
 H         -24.637653      -73.192627      -22.250679
 H         -26.964092      -69.609932      -22.359711
 H         -27.370148      -70.741768      -21.059912
 H         -26.266876      -71.745674      -23.317154
 H         -24.804838      -70.966652      -22.861059
