20
 generated by VMD
 C         -12.805793      -28.687780       -5.950001
 N         -12.932075      -27.702358       -5.433811
 H         -11.601584      -31.204903       -3.703560
 H         -11.178886      -29.748220       -4.539803
 C         -10.743168      -30.580456       -4.005512
 C          -9.871604      -31.343081       -4.944525
 C         -10.043180      -30.086309       -2.743802
 C          -8.613819      -30.523769       -5.247977
 C          -8.877392      -29.155519       -3.189138
 C          -7.934987      -29.900015       -4.103540
 H         -10.399817      -31.486792       -5.829464
 H          -9.434195      -32.303692       -4.584376
 H         -10.725872      -29.503407       -2.095853
 H          -9.660654      -30.908855       -2.181747
 H          -8.849434      -29.750647       -5.973962
 H          -7.886633      -31.230421       -5.606301
 H          -8.348463      -28.755594       -2.336626
 H          -9.328691      -28.249023       -3.690679
 H          -7.231634      -29.189547       -4.685254
 H          -7.438195      -30.698864       -3.524510
