20
 generated by VMD
 C         -21.307104      -52.452007      -11.464718
 N         -21.410368      -52.886829      -10.360865
 H         -19.740290      -50.226131      -13.534795
 H         -20.877748      -52.050259      -12.184810
 C         -18.907965      -50.856628      -13.314562
 C         -18.383060      -51.892128      -14.235053
 C         -18.106665      -50.460323      -12.090363
 C         -16.854395      -52.019138      -14.268791
 C         -16.630730      -50.393719      -12.467740
 C         -16.069923      -51.703396      -13.011712
 H         -18.701443      -51.674892      -15.242272
 H         -18.852322      -52.845238      -13.897530
 H         -18.479137      -49.491520      -11.681735
 H         -18.229656      -51.161911      -11.217644
 H         -16.444996      -51.242069      -14.924921
 H         -16.609320      -52.908390      -14.856297
 H         -16.098886      -50.210426      -11.609740
 H         -16.474833      -49.479576      -13.087471
 H         -15.015441      -51.656834      -13.148857
 H         -16.274853      -52.488094      -12.312846
