20
 generated by VMD
 C         -68.062065     -179.053665      -58.265774
 N         -67.095016     -178.556122      -57.890987
 H         -65.893013     -176.489639      -58.863178
 H         -68.930611     -179.536270      -58.627396
 C         -65.356041     -175.835724      -59.589890
 C         -66.125343     -174.716278      -60.221024
 C         -63.878067     -175.887939      -59.619595
 C         -65.329391     -173.412628      -60.259838
 C         -63.091469     -174.563416      -59.723721
 C         -63.891945     -173.501907      -60.576115
 H         -67.164131     -174.711121      -59.775940
 H         -66.341957     -174.917313      -61.222748
 H         -63.412800     -176.489792      -58.754555
 H         -63.543896     -176.414673      -60.533863
 H         -65.372284     -173.127090      -59.201054
 H         -65.850777     -172.795029      -60.992966
 H         -62.141666     -174.617310      -60.208504
 H         -62.974491     -174.296631      -58.643158
 H         -63.227657     -172.592850      -60.519722
 H         -63.728909     -173.830338      -61.564018
