20
 generated by VMD
 C         -38.700756      -99.100380      -27.067793
 N         -37.714226      -99.078117      -26.438374
 H         -36.880165      -97.399445      -29.876266
 H         -39.490795      -99.176804      -27.716314
 C         -36.106022      -96.960838      -30.447834
 C         -35.405895      -97.548645      -31.666861
 C         -35.291935      -95.963020      -29.497211
 C         -34.501381      -96.509972      -32.198853
 C         -34.079853      -95.368828      -30.087978
 C         -33.433167      -96.215454      -31.224365
 H         -36.094101      -97.854248      -32.500423
 H         -34.874657      -98.392426      -31.324526
 H         -36.047489      -95.321953      -28.964104
 H         -34.944489      -96.543694      -28.657888
 H         -35.090256      -95.552147      -32.558430
 H         -33.951694      -96.899246      -33.043922
 H         -33.327431      -95.069260      -29.398512
 H         -34.292450      -94.338448      -30.543501
 H         -32.496952      -95.653328      -31.460562
 H         -33.050438      -97.156815      -30.911156
