20
 generated by VMD
 C         -30.928518      -92.799049      -26.247820
 N         -30.647230      -92.516357      -25.160093
 H         -32.549736      -90.129959      -26.339031
 H         -31.146709      -92.903236      -27.265751
 C         -33.159424      -90.381454      -27.176067
 C         -33.973125      -91.723953      -27.085545
 C         -33.290749      -89.567162      -28.411509
 C         -35.204769      -91.658318      -27.976419
 C         -34.653244      -89.741814      -29.317726
 C         -35.099480      -91.151543      -29.411201
 H         -34.170910      -91.549492      -26.006062
 H         -33.245907      -92.567490      -27.296089
 H         -33.261059      -88.506927      -28.186392
 H         -32.492367      -89.816673      -29.183487
 H         -36.046947      -91.112671      -27.511179
 H         -35.457729      -92.722710      -28.009705
 H         -34.526649      -89.480164      -30.406113
 H         -35.455494      -89.118774      -28.844576
 H         -36.092373      -91.097229      -29.937935
 H         -34.439060      -91.889275      -29.901148
