20
 generated by VMD
 C         -79.558708     -205.645081      -72.685532
 N         -80.250999     -206.595978      -72.489380
 H         -77.630676     -204.654297      -70.783600
 H         -78.816635     -204.946777      -73.042259
 C         -76.686119     -205.169342      -70.963882
 C         -75.513313     -204.260849      -71.290459
 C         -76.399643     -206.518234      -70.389633
 C         -74.766479     -204.094223      -70.071190
 C         -75.664757     -206.317413      -69.164513
 C         -74.354996     -205.511795      -69.522903
 H         -75.877663     -203.300049      -71.731277
 H         -74.903641     -204.769745      -72.056717
 H         -77.318275     -207.117935      -70.214905
 H         -75.722527     -207.148102      -71.057495
 H         -75.340088     -203.541107      -69.330772
 H         -74.020065     -203.374100      -70.269669
 H         -75.463669     -207.319122      -68.835625
 H         -76.200935     -205.655579      -68.310043
 H         -73.875076     -205.434326      -68.562340
 H         -73.680222     -206.020401      -70.241081
