20
 generated by VMD
 C         -38.546280     -111.430969      -36.284573
 N         -38.371464     -110.509628      -36.942974
 H         -40.347263     -114.290070      -34.912201
 H         -38.742496     -112.296944      -35.739086
 C         -41.408211     -114.178841      -35.164711
 C         -41.803486     -114.466026      -36.567101
 C         -42.115673     -113.270584      -34.273285
 C         -43.201141     -114.111679      -36.938667
 C         -43.601368     -113.049606      -34.665054
 C         -43.856098     -112.874428      -36.101608
 H         -41.703346     -115.516174      -36.844498
 H         -41.062889     -114.041618      -37.233425
 H         -42.046150     -113.772011      -33.269386
 H         -41.641556     -112.272110      -34.084587
 H         -43.818081     -114.946381      -36.720417
 H         -43.322578     -114.009415      -38.034111
 H         -44.069069     -112.226418      -33.949150
 H         -44.120415     -113.937042      -34.153477
 H         -44.894222     -112.947403      -36.412506
 H         -43.417248     -111.968056      -36.551895
