20
 generated by VMD
 C         -57.658890     -168.153717      -55.149815
 N         -56.611301     -168.476273      -54.872662
 H         -61.430107     -166.965958      -55.320442
 H         -58.660591     -167.913498      -55.506783
 C         -62.352859     -166.772339      -55.853230
 C         -62.611904     -167.361267      -57.222424
 C         -63.098248     -165.539673      -55.575050
 C         -64.105553     -167.403351      -57.539703
 C         -64.549416     -165.546844      -56.038631
 C         -64.785545     -166.076035      -57.382439
 H         -62.343407     -168.322098      -57.360722
 H         -62.065208     -166.683167      -58.078831
 H         -63.071808     -165.346497      -54.577259
 H         -62.465851     -164.731354      -55.971508
 H         -64.563866     -168.176849      -56.946579
 H         -64.286430     -167.697311      -58.536694
 H         -65.019913     -164.471237      -55.868050
 H         -65.077698     -166.215149      -55.278320
 H         -65.921234     -166.232834      -57.290852
 H         -64.605042     -165.308594      -58.178303
