20
 generated by VMD
 C         -11.246137      -38.883839       -6.598938
 N         -11.931064      -38.597740       -7.403475
 H         -12.752885      -41.599876       -9.019812
 H         -13.653652      -40.181683       -8.256622
 C         -13.771427      -41.194565       -8.866464
 C         -14.507671      -42.223686       -8.061005
 C         -14.383766      -40.865944      -10.221656
 C         -15.880362      -41.700321       -7.861705
 C         -15.834904      -40.566635      -10.082479
 C         -16.586407      -41.525085       -9.158345
 H         -14.009809      -42.418293       -7.126393
 H         -14.529453      -43.181099       -8.643416
 H         -13.878254      -40.048874      -10.694000
 H         -14.258023      -41.772446      -10.835969
 H         -15.875882      -40.764267       -7.266207
 H         -16.423195      -42.379803       -7.250633
 H         -16.288250      -40.439095      -11.130571
 H         -15.968467      -39.622684       -9.622920
 H         -17.578075      -41.087631       -9.009218
 H         -16.663357      -42.526890       -9.636023
