20
 generated by VMD
 C         -56.510391     -150.141510      -47.646572
 N         -57.625893     -150.343872      -47.806992
 H         -53.448616     -148.239868      -47.313087
 H         -55.473801     -149.866882      -47.592865
 C         -53.724064     -147.955307      -48.354568
 C         -53.033176     -148.450989      -49.711235
 C         -54.433647     -146.636246      -48.628792
 C         -54.179951     -148.705750      -50.651379
 C         -55.555183     -146.835831      -49.655308
 C         -54.956848     -147.435425      -50.923214
 H         -52.400158     -149.385162      -49.675632
 H         -52.288914     -147.608765      -49.844017
 H         -54.728474     -146.265076      -47.664780
 H         -53.769493     -145.800278      -48.950256
 H         -54.787743     -149.530624      -50.262119
 H         -53.766922     -149.102676      -51.572880
 H         -55.980354     -145.974579      -50.008179
 H         -56.476589     -147.351807      -49.246056
 H         -55.675842     -147.600174      -51.682003
 H         -54.196117     -146.709457      -51.249176
