20
 generated by VMD
 C         -18.135695      -49.838783       -8.788054
 N         -19.232321      -49.943974       -8.930749
 H         -16.341032      -47.162701      -10.045440
 H         -17.239477      -48.707455      -10.291864
 C         -16.726599      -47.795055      -10.851410
 C         -15.507103      -48.365826      -11.587523
 C         -17.743671      -47.031605      -11.717326
 C         -15.896816      -49.088219      -12.889022
 C         -18.090618      -47.718697      -13.021194
 C         -16.815779      -48.221085      -13.803435
 H         -14.957228      -48.958652      -10.850160
 H         -14.782297      -47.618427      -11.898357
 H         -18.683201      -46.943130      -11.135031
 H         -17.422537      -45.980637      -11.777950
 H         -16.327324      -50.089653      -12.639516
 H         -15.001850      -49.419231      -13.478717
 H         -18.582924      -46.983849      -13.644432
 H         -18.831181      -48.488342      -12.771765
 H         -17.161171      -48.799545      -14.664289
 H         -16.232199      -47.348007      -14.132258
