20
 generated by VMD
 C          -2.639254       -9.751038        0.072296
 N          -2.001717       -8.840653        0.304003
 H          -2.073330      -11.307533        2.643926
 H          -2.565034      -12.258226        4.185172
 C          -2.785272      -12.082980        3.111364
 C          -2.554353      -13.461370        2.441408
 C          -4.178867      -11.580762        2.896023
 C          -3.589228      -14.526436        2.863407
 C          -5.288164      -12.616670        3.208684
 C          -4.990932      -13.997745        2.606035
 H          -1.575917      -13.752202        2.748065
 H          -2.581471      -13.334188        1.342947
 H          -4.300965      -10.651563        3.398152
 H          -4.265300      -11.237228        1.863681
 H          -3.490606      -14.671476        3.949361
 H          -3.424287      -15.449368        2.293531
 H          -6.266365      -12.290224        2.857743
 H          -5.348935      -12.737269        4.312455
 H          -5.709235      -14.742042        3.037944
 H          -5.237031      -14.031208        1.503023
