20
 generated by VMD
 C         -21.729506      -52.450371      -11.324255
 N         -21.519892      -52.951996      -10.289809
 H         -19.870073      -50.887783      -14.097708
 H         -21.597979      -51.946934      -12.082711
 C         -18.781345      -50.926472      -13.763258
 C         -18.133682      -52.056095      -14.447468
 C         -18.361065      -50.817135      -12.345680
 C         -16.621233      -51.855057      -14.492002
 C         -16.904118      -51.009922      -12.102637
 C         -16.155233      -52.008282      -13.051091
 H         -18.456011      -52.069244      -15.475365
 H         -18.403229      -53.037685      -13.935947
 H         -18.753122      -49.883663      -11.844343
 H         -18.825647      -51.623703      -11.782055
 H         -16.372141      -50.907631      -14.967152
 H         -16.063341      -52.576187      -15.089011
 H         -16.674530      -51.105503      -11.104421
 H         -16.458118      -50.023670      -12.380804
 H         -15.106503      -51.875813      -12.884895
 H         -16.353464      -53.021030      -12.747465
