20
 generated by VMD
 C          -9.755082      -24.791807        0.567065
 N         -10.523798      -25.265055       -0.096960
 H          -6.199731      -24.152969       -0.907664
 H          -7.936783      -23.863579       -1.056970
 C          -7.024159      -23.991451       -1.644280
 C          -7.230605      -25.219849       -2.506037
 C          -6.699568      -22.664827       -2.376012
 C          -8.034730      -24.871910       -3.730607
 C          -7.545277      -22.375509       -3.580784
 C          -7.700385      -23.610901       -4.482040
 H          -7.748147      -26.055969       -1.947517
 H          -6.267935      -25.425936       -2.868695
 H          -6.780196      -21.862471       -1.642441
 H          -5.645651      -22.820824       -2.690624
 H          -9.072351      -24.730595       -3.333851
 H          -7.905427      -25.790117       -4.408868
 H          -7.177813      -21.556849       -4.179401
 H          -8.566861      -22.120216       -3.286586
 H          -8.403576      -23.424055       -5.285089
 H          -6.740457      -23.778582       -4.999479
