20
 generated by VMD
 C         -68.652481     -185.408691      -67.032532
 N         -67.654930     -185.043686      -66.534302
 H         -69.396126     -187.666382      -65.010384
 H         -69.476608     -185.875275      -67.469528
 C         -69.584053     -187.325134      -63.947037
 C         -69.885788     -185.833542      -63.707844
 C         -69.807907     -188.374252      -62.879768
 C         -69.698471     -185.368820      -62.288151
 C         -69.743790     -187.874222      -61.452457
 C         -70.216614     -186.492996      -61.292812
 H         -70.908730     -185.654465      -63.940556
 H         -69.381538     -185.155533      -64.363693
 H         -70.599892     -189.035034      -63.066700
 H         -68.977928     -189.060638      -63.119633
 H         -70.199486     -184.427109      -62.079956
 H         -68.612213     -185.095413      -62.114197
 H         -68.709717     -187.981766      -61.172707
 H         -70.405731     -188.437271      -60.868332
 H         -71.264572     -186.346695      -61.283783
 H         -69.756889     -186.201813      -60.286751
