20
 generated by VMD
 C          -1.606107      -13.133043        0.679822
 N          -0.700163      -13.763676        0.530237
 H          -3.894202      -14.179218        1.866557
 H          -5.032086      -14.109266        0.498321
 C          -4.745193      -14.725923        1.404373
 C          -6.102535      -14.708322        2.139666
 C          -4.332403      -16.119156        0.985009
 C          -7.210366      -15.373419        1.378707
 C          -5.508784      -16.825916        0.250235
 C          -6.785619      -16.855894        1.100825
 H          -6.368584      -13.638407        2.304170
 H          -5.910824      -15.120663        3.106771
 H          -3.482239      -16.088289        0.375614
 H          -4.230564      -16.629030        1.864930
 H          -7.442849      -14.859346        0.420987
 H          -8.123125      -15.352571        2.013816
 H          -5.115407      -17.838156        0.191401
 H          -5.671118      -16.361423       -0.750195
 H          -7.586609      -17.323404        0.516494
 H          -6.717100      -17.378965        2.079931
