20
 generated by VMD
 C         -11.558756      -33.537987       -8.853343
 N         -10.477582      -33.410534       -8.879275
 H         -12.216908      -34.898796       -7.543947
 H         -12.680935      -34.865814       -5.787664
 C         -12.624251      -35.509689       -6.661839
 C         -11.607756      -36.596413       -6.390540
 C         -14.008411      -36.144627       -6.950745
 C         -12.094036      -37.663528       -5.377695
 C         -14.525209      -37.128525       -5.917109
 C         -13.477059      -38.239784       -5.729782
 H         -10.697700      -36.147614       -6.021778
 H         -11.389867      -37.138042       -7.346142
 H         -14.670979      -35.280842       -7.023852
 H         -14.035144      -36.634995       -7.913862
 H         -12.039726      -37.239407       -4.364404
 H         -11.380180      -38.474983       -5.567873
 H         -15.512335      -37.604702       -6.328928
 H         -14.775420      -36.654030       -4.991305
 H         -13.753891      -38.863956       -4.880919
 H         -13.520496      -38.977043       -6.612010
