20
 generated by VMD
 C         -79.194382     -206.826126      -75.332207
 N         -79.007935     -207.153717      -76.470375
 H         -79.080124     -209.827728      -72.952438
 H         -79.390541     -206.823868      -74.261810
 C         -78.174728     -210.104385      -72.368866
 C         -76.921364     -209.254349      -72.167107
 C         -78.372627     -211.091690      -71.206078
 C         -76.970985     -208.417374      -70.778320
 C         -78.252861     -210.415588      -69.780289
 C         -77.018974     -209.601761      -69.558258
 H         -77.024605     -208.499893      -72.960701
 H         -75.982254     -209.767654      -72.346642
 H         -79.352142     -211.536819      -71.330887
 H         -77.709541     -211.964447      -71.200821
 H         -77.768791     -207.702255      -70.894234
 H         -75.997314     -207.944763      -70.688316
 H         -78.269402     -211.214554      -68.966866
 H         -79.142746     -209.832611      -69.728630
 H         -76.945694     -209.056076      -68.614243
 H         -76.234787     -210.375229      -69.708794
