20
 generated by VMD
 C         -22.823391      -52.385578      -11.993242
 N         -22.955408      -52.540482      -10.845517
 H         -19.890963      -52.609325      -14.109670
 H         -22.530176      -52.147148      -13.202817
 C         -18.874817      -52.719643      -13.894116
 C         -17.997856      -51.887272      -14.755960
 C         -18.295311      -53.697872      -12.866880
 C         -16.558184      -52.288586      -14.607740
 C         -17.054903      -53.117905      -12.191076
 C         -16.240786      -52.159386      -13.150708
 H         -18.148188      -50.856483      -14.410223
 H         -18.298075      -51.867771      -15.772006
 H         -19.021421      -53.835556      -12.086733
 H         -18.114698      -54.692257      -13.279128
 H         -15.936521      -51.704258      -15.315434
 H         -16.514330      -53.323864      -14.995559
 H         -16.495222      -53.930862      -11.795023
 H         -17.209227      -52.568443      -11.242548
 H         -16.373039      -51.092674      -12.888566
 H         -15.153821      -52.344742      -13.014305
