20
 generated by VMD
 C         -30.345890      -79.566895      -26.020285
 N         -30.948185      -78.585022      -26.133629
 H         -28.481047      -82.505173      -25.838173
 H         -29.843910      -80.501045      -25.536617
 C         -28.902824      -82.376305      -24.768402
 C         -28.072811      -81.687866      -23.606487
 C         -30.012909      -83.349350      -24.250666
 C         -28.946867      -81.289101      -22.356499
 C         -30.811794      -82.818878      -23.029358
 C         -29.932238      -82.345161      -21.881466
 H         -27.501387      -80.770721      -23.854860
 H         -27.317883      -82.449074      -23.339022
 H         -30.693598      -83.532898      -25.122429
 H         -29.641533      -84.304428      -24.025160
 H         -29.500355      -80.336487      -22.826382
 H         -28.365965      -80.853142      -21.556046
 H         -31.437168      -83.622162      -22.681410
 H         -31.485140      -82.082069      -23.388430
 H         -30.513660      -81.953461      -21.058937
 H         -29.640165      -83.226601      -21.323580
