20
 generated by VMD
 C         -50.434814     -131.788040      -47.020653
 N         -49.993294     -132.220673      -48.023403
 H         -48.760792     -131.420959      -43.617210
 H         -50.607437     -131.802902      -45.934566
 C         -48.775337     -132.295975      -43.015228
 C         -49.507828     -133.481720      -43.488148
 C         -48.609268     -132.053864      -41.523640
 C         -49.052395     -134.726685      -42.789715
 C         -48.248653     -133.428635      -40.794144
 C         -49.269348     -134.466980      -41.256687
 H         -49.432083     -133.779205      -44.539116
 H         -50.564671     -133.307251      -43.257500
 H         -47.795193     -131.420685      -41.294510
 H         -49.406597     -131.447983      -41.065216
 H         -48.003773     -135.017532      -42.922371
 H         -49.675213     -135.598816      -43.008408
 H         -48.139198     -133.129227      -39.732540
 H         -47.213352     -133.702484      -40.995514
 H         -49.002422     -135.370651      -40.765186
 H         -50.378128     -134.234024      -41.053310
