20
 generated by VMD
 C         -65.582817     -177.645126      -56.708832
 N         -66.129066     -176.683182      -56.376194
 H         -65.110313     -175.426346      -59.471695
 H         -65.079109     -178.599609      -56.907127
 C         -64.608459     -174.429001      -59.448616
 C         -65.399811     -173.387894      -58.647873
 C         -63.428181     -174.025101      -60.438545
 C         -65.021019     -171.923706      -58.864941
 C         -63.152851     -172.506363      -60.357040
 C         -64.366112     -171.622604      -60.242718
 H         -65.330643     -173.502029      -57.591743
 H         -66.477005     -173.630722      -58.931328
 H         -62.544937     -174.468903      -60.070084
 H         -63.813000     -174.244827      -61.382565
 H         -64.335884     -171.527130      -58.122772
 H         -65.832184     -171.243896      -58.893383
 H         -62.462975     -172.278595      -61.245586
 H         -62.480869     -172.369171      -59.508419
 H         -64.109970     -170.520432      -60.160000
 H         -65.143837     -171.636581      -60.970619
