20
 generated by VMD
 C         -20.466167      -52.264366       -9.725946
 N         -21.193567      -51.789341      -10.484193
 H         -18.532139      -49.478374      -10.796885
 H         -20.088930      -52.914021       -8.635903
 C         -17.875099      -49.583977      -11.688272
 C         -17.343740      -50.945366      -12.089932
 C         -17.140961      -48.388512      -12.233000
 C         -16.745092      -51.130604      -13.544426
 C         -16.942194      -48.571312      -13.719149
 C         -16.070782      -49.815708      -13.878811
 H         -18.183809      -51.701283      -12.119148
 H         -16.706934      -51.343555      -11.271890
 H         -17.695532      -47.490074      -11.975130
 H         -16.105206      -48.342049      -11.774364
 H         -17.494940      -51.317867      -14.310037
 H         -16.104132      -52.004253      -13.585562
 H         -16.493097      -47.726883      -14.161747
 H         -17.910439      -48.707237      -14.319378
 H         -15.776658      -49.775047      -14.893681
 H         -15.220885      -49.703716      -13.235710
