20
 generated by VMD
 C         -78.741333     -207.963776      -76.748024
 N         -78.726463     -208.056549      -75.606834
 H         -78.981270     -210.106369      -73.561768
 H         -78.797264     -207.836075      -77.860954
 C         -78.676781     -210.184601      -72.523552
 C         -77.374435     -209.564590      -72.285484
 C         -79.185410     -211.263748      -71.554489
 C         -77.226418     -209.255951      -70.745522
 C         -78.687668     -211.121552      -70.154488
 C         -77.251350     -210.617691      -69.917381
 H         -77.492332     -208.551666      -72.692535
 H         -76.439873     -210.116333      -72.649757
 H         -80.287285     -211.329605      -71.796295
 H         -78.757759     -212.237762      -71.870872
 H         -78.042809     -208.532471      -70.469795
 H         -76.224068     -208.775513      -70.573334
 H         -78.708099     -212.094498      -69.573654
 H         -79.431877     -210.545593      -69.692856
 H         -77.100662     -210.390366      -68.824524
 H         -76.628258     -211.460587      -70.184303
