20
 generated by VMD
 C         -74.863281     -201.806290      -66.271400
 N         -74.080307     -201.068024      -65.770798
 H         -76.092644     -199.308701      -68.370094
 H         -75.509338     -202.485825      -66.750923
 C         -75.307808     -198.678345      -68.759956
 C         -75.033043     -197.320328      -68.248779
 C         -74.491615     -199.125656      -70.016296
 C         -73.552559     -196.993744      -68.106682
 C         -73.160812     -198.347015      -70.207771
 C         -72.507690     -197.941666      -68.855453
 H         -75.497704     -197.148788      -67.298111
 H         -75.516090     -196.462036      -68.967377
 H         -74.248505     -200.172409      -69.826515
 H         -75.153854     -198.906326      -70.930840
 H         -73.188133     -196.925629      -67.058617
 H         -73.460831     -195.989441      -68.562920
 H         -73.366455     -197.418854      -70.856209
 H         -72.416878     -198.904633      -70.761482
 H         -72.175110     -198.870621      -68.209610
 H         -71.556679     -197.518738      -69.204399
