20
 generated by VMD
 C         -68.502266     -194.096634      -66.565971
 N         -67.720856     -193.892944      -65.742958
 H         -70.132767     -190.878616      -66.151497
 H         -69.252281     -194.316437      -67.262260
 C         -71.173569     -190.985764      -65.896568
 C         -72.249870     -190.274765      -66.583298
 C         -71.456322     -191.619720      -64.547302
 C         -73.658722     -191.104233      -66.606880
 C         -72.928146     -191.590988      -64.210884
 C         -73.886307     -191.960617      -65.289581
 H         -71.885971     -190.060745      -67.656097
 H         -72.497589     -189.361526      -66.120163
 H         -71.133614     -192.739960      -64.620438
 H         -70.820786     -191.073685      -63.862270
 H         -73.470047     -191.847000      -67.468529
 H         -74.518822     -190.401749      -66.808144
 H         -73.197250     -190.610016      -63.832676
 H         -73.008789     -192.242859      -63.271114
 H         -73.716522     -192.932114      -65.559074
 H         -74.953033     -191.868286      -64.836143
