20
 generated by VMD
 C         -50.685959     -129.169464      -42.810032
 N         -50.470135     -128.216202      -42.123180
 H         -48.456299     -127.777802      -40.304844
 H         -51.050507     -129.984344      -43.462337
 C         -47.384457     -127.569145      -40.513313
 C         -46.283886     -128.571304      -40.151367
 C         -47.180218     -126.214897      -41.187817
 C         -45.015038     -128.285110      -40.989681
 C         -45.912453     -126.266701      -42.043491
 C         -44.711060     -126.831085      -41.309273
 H         -46.613777     -129.589813      -40.248653
 H         -46.081856     -128.392517      -39.079342
 H         -48.021057     -126.149712      -41.892242
 H         -47.233040     -125.558395      -40.221371
 H         -45.122337     -128.830856      -41.902512
 H         -44.235973     -128.670883      -40.367878
 H         -45.676311     -125.226738      -42.355289
 H         -46.043072     -126.712769      -43.030716
 H         -43.754475     -126.651955      -41.954960
 H         -44.499702     -126.229958      -40.387955
