20
 generated by VMD
 C         -11.853231      -39.354836       -6.379275
 N         -11.330301      -39.053143       -7.335613
 H         -12.821240      -41.111923       -9.105812
 H         -13.955638      -39.892570       -8.767793
 C         -13.882833      -41.000488       -8.994502
 C         -14.512660      -41.888100       -8.003693
 C         -14.503182      -41.229053      -10.339267
 C         -16.024260      -41.831360       -7.993875
 C         -15.984128      -40.878986      -10.327461
 C         -16.671316      -41.814259       -9.386657
 H         -14.223669      -41.669647       -6.982758
 H         -14.193899      -42.936104       -8.189407
 H         -14.053373      -40.615761      -11.101669
 H         -14.454759      -42.291302      -10.667497
 H         -16.311058      -40.928024       -7.394875
 H         -16.438402      -42.645134       -7.430050
 H         -16.402649      -40.967899      -11.381277
 H         -16.064974      -39.870041      -10.087508
 H         -17.684069      -41.493671       -9.267485
 H         -16.603268      -42.829681       -9.738677
