20
 generated by VMD
 C         -38.461502     -108.900986      -36.678413
 N         -37.316048     -108.790657      -36.583462
 H         -41.357391     -109.740891      -36.148315
 H         -39.571262     -108.871719      -36.636066
 C         -41.941662     -110.517868      -35.616226
 C         -41.568810     -111.975845      -35.809052
 C         -42.762230     -110.188492      -34.335411
 C         -40.683208     -112.273003      -34.663418
 C         -41.934765     -110.758789      -33.220890
 C         -41.440868     -112.107681      -33.313473
 H         -41.031372     -112.233459      -36.689175
 H         -42.433945     -112.641159      -35.712379
 H         -42.930233     -109.145950      -34.111282
 H         -43.699360     -110.745338      -34.307140
 H         -39.691738     -111.756294      -34.569023
 H         -40.414326     -113.355400      -34.847336
 H         -42.480587     -110.756500      -32.342148
 H         -41.179325     -110.045670      -33.065620
 H         -40.706371     -112.439217      -32.464195
 H         -42.220879     -112.850853      -33.333111
