20
 generated by VMD
 C         -73.950722     -201.139389      -65.355400
 N         -72.792824     -201.105453      -65.455315
 H         -74.337677     -198.045135      -66.661774
 H         -75.032852     -201.431030      -65.459480
 C         -74.298309     -197.571289      -67.637817
 C         -74.609848     -196.067444      -67.729805
 C         -73.595795     -198.296997      -68.697365
 C         -73.460678     -195.361450      -68.466164
 C         -73.813683     -197.498917      -69.993042
 C         -73.265564     -196.029373      -69.767677
 H         -74.646469     -195.563385      -66.660439
 H         -75.514000     -196.070206      -68.207069
 H         -72.497002     -198.466339      -68.447014
 H         -74.189957     -199.240097      -68.749947
 H         -72.579178     -195.347076      -67.779106
 H         -73.734833     -194.319656      -68.554276
 H         -74.825630     -197.476776      -70.317726
 H         -73.255974     -197.872345      -70.817307
 H         -72.189468     -195.999969      -69.888145
 H         -73.549950     -195.289047      -70.644226
