20
 generated by VMD
 C         -49.573734     -131.781891      -46.453148
 N         -50.213425     -132.453339      -47.243263
 H         -47.686298     -133.603134      -44.358025
 H         -48.821747     -131.357941      -45.810493
 C         -48.551998     -133.868225      -43.786812
 C         -49.187435     -135.232468      -43.986607
 C         -49.101669     -132.912750      -42.805912
 C         -49.604816     -135.855591      -42.702114
 C         -49.544491     -133.692001      -41.471992
 C         -50.431999     -134.887299      -41.757828
 H         -48.546490     -135.879593      -44.553669
 H         -50.056705     -135.046921      -44.567558
 H         -48.210529     -132.270050      -42.383865
 H         -49.873833     -132.221527      -43.237770
 H         -48.769714     -136.291306      -42.072136
 H         -50.315311     -136.672562      -42.791618
 H         -50.010155     -132.959412      -40.829750
 H         -48.729988     -134.026260      -40.797543
 H         -50.568226     -135.379166      -40.728600
 H         -51.316883     -134.562042      -42.202290
