20
 generated by VMD
 C         -68.451416     -185.283585      -67.012230
 N         -67.699120     -186.157394      -66.980339
 H         -69.741386     -184.834274      -64.493332
 H         -69.223183     -184.469650      -67.061104
 C         -69.671577     -185.168564      -63.517620
 C         -70.849586     -185.153397      -62.532944
 C         -68.357353     -185.765686      -63.128384
 C         -70.357101     -185.398544      -61.086464
 C         -68.224060     -186.431183      -61.718872
 C         -69.516197     -186.664490      -61.046387
 H         -71.685646     -185.788864      -62.798843
 H         -71.290283     -184.134537      -62.632797
 H         -68.150307     -186.607620      -63.676910
 H         -67.543488     -185.129120      -63.417805
 H         -71.260887     -185.342361      -60.458260
 H         -69.688972     -184.549423      -60.797440
 H         -67.536522     -185.898361      -61.075287
 H         -67.747070     -187.354980      -61.904541
 H         -70.108612     -187.552826      -61.282833
 H         -69.378197     -186.987915      -60.002106
