20
 generated by VMD
 C          -1.831552      -13.028521        0.513844
 N          -1.536370      -13.728978        1.338987
 H          -3.403079      -15.750457        1.544856
 H          -4.250973      -15.438522        0.072470
 C          -4.360256      -15.817616        1.080595
 C          -5.520520      -14.994391        1.767840
 C          -4.747344      -17.257032        0.911706
 C          -6.831973      -15.169870        0.881709
 C          -6.048990      -17.470100        0.153769
 C          -7.154737      -16.637470        0.783024
 H          -5.257840      -13.927207        1.869619
 H          -5.740226      -15.378221        2.774913
 H          -3.902159      -17.838474        0.469797
 H          -4.898129      -17.707277        1.923272
 H          -6.786478      -14.719200       -0.103906
 H          -7.627827      -14.618575        1.386593
 H          -6.269278      -18.560120        0.255080
 H          -5.944158      -17.330101       -0.925428
 H          -8.069335      -16.732882        0.204997
 H          -7.388642      -17.064663        1.770866
