20
 generated by VMD
 C         -70.809326     -181.618515      -64.204727
 N         -70.174217     -182.380127      -63.645935
 H         -68.511734     -181.057556      -61.263020
 H         -71.395203     -180.858871      -64.703331
 C         -67.609566     -180.705093      -60.901600
 C         -66.495422     -181.875153      -60.566956
 C         -67.302521     -179.348145      -60.338562
 C         -65.088219     -181.337631      -60.805790
 C         -65.896980     -178.870819      -60.927917
 C         -64.858482     -179.839554      -60.317043
 H         -66.833923     -182.702896      -61.235153
 H         -66.620010     -182.246414      -59.553055
 H         -68.072731     -178.650085      -60.725693
 H         -67.346870     -179.176270      -59.335564
 H         -64.797112     -181.497971      -61.852379
 H         -64.442818     -181.889343      -60.081112
 H         -65.699280     -177.802841      -60.715305
 H         -65.790916     -178.954712      -62.001038
 H         -63.803772     -179.346329      -60.538128
 H         -64.958572     -179.909561      -59.246464
