20
 generated by VMD
 C         -74.269226     -200.380630      -66.344322
 N         -73.235153     -200.896423      -66.347275
 H         -76.530273     -198.302872      -68.522331
 H         -75.081970     -199.739975      -66.301743
 C         -75.431290     -198.194916      -68.526108
 C         -74.695007     -197.086838      -67.558960
 C         -74.519844     -199.043701      -69.375557
 C         -73.631042     -196.360931      -68.277168
 C         -73.209122     -198.300522      -69.819901
 C         -72.623238     -197.396790      -68.718353
 H         -74.388451     -197.671158      -66.574692
 H         -75.455032     -196.438812      -67.249489
 H         -74.194016     -199.942902      -68.846909
 H         -75.100494     -199.420898      -70.220703
 H         -73.284447     -195.604126      -67.551300
 H         -74.034340     -195.725983      -69.110405
 H         -73.301476     -197.644318      -70.699738
 H         -72.435593     -199.169174      -70.000542
 H         -72.219856     -197.955704      -67.898659
 H         -71.715248     -196.781418      -69.226425
