20
 generated by VMD
 C         -70.670914     -181.903412      -63.942154
 N         -69.724159     -182.512390      -63.835873
 H         -68.724953     -180.785751      -61.633949
 H         -71.593163     -181.335114      -64.129288
 C         -67.855850     -180.713852      -61.059971
 C         -66.922081     -181.890579      -60.775974
 C         -67.333488     -179.302628      -60.777233
 C         -65.441299     -181.682617      -61.038620
 C         -65.822998     -179.130432      -60.739014
 C         -65.037872     -180.407394      -60.154972
 H         -67.213852     -182.797272      -61.375103
 H         -67.130135     -182.269485      -59.645935
 H         -67.708328     -178.508469      -61.370892
 H         -67.703964     -179.015488      -59.726864
 H         -65.319168     -181.467575      -62.105827
 H         -64.934860     -182.534470      -60.639069
 H         -65.573402     -178.343216      -60.033474
 H         -65.382401     -178.952606      -61.753788
 H         -64.003685     -180.257416      -60.281155
 H         -65.197357     -180.462479      -58.999851
