20
 generated by VMD
 C         -22.285437      -67.481323      -16.191904
 N         -21.157375      -67.193016      -16.131887
 H         -23.813648      -65.642319      -17.887791
 H         -23.297062      -67.733665      -15.969646
 C         -24.447189      -66.144630      -18.660925
 C         -23.944210      -66.677757      -19.919800
 C         -25.828863      -66.390282      -18.281944
 C         -24.490627      -68.037170      -20.199154
 C         -26.373865      -67.821686      -18.847788
 C         -26.026911      -68.052879      -20.272203
 H         -22.773989      -66.642807      -19.767895
 H         -24.024578      -65.920029      -20.708815
 H         -25.833076      -66.356606      -17.205454
 H         -26.581522      -65.535492      -18.501181
 H         -24.136868      -68.756218      -19.491186
 H         -24.087729      -68.388443      -21.177687
 H         -27.443878      -67.795631      -18.943251
 H         -26.081791      -68.607147      -18.073275
 H         -26.284565      -69.080093      -20.496820
 H         -26.346088      -67.266121      -21.015516
