20
 generated by VMD
 C         -25.805828      -71.235161      -17.067118
 N         -25.752695      -71.794426      -16.075575
 H         -23.812685      -68.836365      -18.927759
 H         -26.029881      -70.612488      -18.009752
 C         -24.602510      -69.311417      -19.517609
 C         -23.971094      -70.126434      -20.513664
 C         -25.763201      -68.476112      -20.116348
 C         -24.933096      -70.934616      -21.216946
 C         -26.755140      -69.466187      -20.811077
 C         -26.106119      -70.236900      -21.917120
 H         -23.152414      -70.803490      -20.186583
 H         -23.403776      -69.508408      -21.270636
 H         -26.223440      -67.995804      -19.265921
 H         -25.207821      -67.813751      -20.864214
 H         -25.281782      -71.773674      -20.552519
 H         -24.380285      -71.483940      -21.945339
 H         -27.541119      -68.861893      -21.286497
 H         -27.125341      -70.186745      -20.116501
 H         -26.909225      -70.983177      -22.224659
 H         -25.837372      -69.497314      -22.719212
