20
 generated by VMD
 C         -23.127741      -54.545689      -14.976126
 N         -23.817389      -53.859856      -15.700772
 H         -20.221273      -54.682213      -15.401086
 H         -22.666395      -55.350506      -14.350145
 C         -19.710657      -55.318199      -14.685718
 C         -19.159634      -54.645920      -13.460959
 C         -18.993225      -56.527351      -15.233646
 C         -18.508352      -55.555630      -12.403639
 C         -18.737436      -57.396969      -14.019288
 C         -17.732410      -56.660107      -13.056321
 H         -19.863028      -54.070679      -12.888916
 H         -18.418694      -54.003040      -13.857154
 H         -19.631622      -56.986847      -16.078592
 H         -18.073332      -56.228657      -15.671427
 H         -19.272606      -55.956985      -11.713227
 H         -17.810516      -54.922482      -11.902947
 H         -18.257929      -58.352413      -14.345428
 H         -19.682335      -57.629505      -13.546075
 H         -17.326752      -57.345261      -12.268847
 H         -16.883846      -56.193596      -13.573246
