20
 generated by VMD
 C         -41.044476     -104.066566      -35.892937
 N         -41.871601     -104.855652      -36.043961
 H         -38.359970     -104.118439      -33.597576
 H         -40.426762     -103.193962      -35.730667
 C         -38.289963     -104.835587      -32.837551
 C         -36.875980     -105.241920      -32.395260
 C         -39.253345     -105.968529      -33.102215
 C         -36.966915     -106.220291      -31.242428
 C         -39.207859     -107.029068      -31.981220
 C         -37.816711     -107.413391      -31.561001
 H         -36.343765     -104.262756      -32.131538
 H         -36.488918     -105.634880      -33.333157
 H         -40.268654     -105.670448      -33.210163
 H         -38.966213     -106.408653      -34.088116
 H         -37.343185     -105.687164      -30.392784
 H         -36.072712     -106.692810      -30.895243
 H         -39.507771     -107.945984      -32.572136
 H         -39.942455     -107.018410      -31.206554
 H         -37.765980     -108.110954      -30.688740
 H         -37.382404     -108.005135      -32.351204
