20
 generated by VMD
 C         -31.323874      -77.009193      -24.977289
 N         -32.112122      -77.057892      -25.844868
 H         -29.074492      -76.828224      -22.040081
 H         -31.005459      -76.989777      -23.941874
 C         -28.463247      -77.755409      -22.141825
 C         -27.492468      -78.015068      -23.234852
 C         -28.850550      -78.883598      -21.262640
 C         -26.220566      -78.607994      -22.611193
 C         -27.539598      -79.393867      -20.600971
 C         -26.562983      -79.790138      -21.667456
 H         -27.182648      -76.978127      -23.497057
 H         -27.887154      -78.744492      -23.983377
 H         -29.465523      -78.464684      -20.507271
 H         -29.361595      -79.631966      -21.928558
 H         -25.558081      -77.906670      -22.055021
 H         -25.548618      -78.844826      -23.464457
 H         -27.661011      -80.109367      -19.892853
 H         -27.052172      -78.596893      -20.039333
 H         -25.588984      -80.091934      -21.273172
 H         -26.845982      -80.735878      -22.279161
