20
 generated by VMD
 C          -0.886677      -13.429667        0.832199
 N          -0.265997      -13.345998       -0.085580
 H          -4.525419      -13.450964        2.102051
 H          -5.782241      -13.493480        0.804105
 C          -5.282745      -14.081464        1.594874
 C          -6.457099      -14.572392        2.432913
 C          -4.364435      -15.233721        1.063886
 C          -7.243892      -15.636026        1.754248
 C          -5.196239      -16.351608        0.430325
 C          -6.405562      -16.795279        1.261307
 H          -7.160338      -13.803943        2.690977
 H          -6.191990      -14.861793        3.455705
 H          -3.620152      -14.935472        0.349732
 H          -3.750564      -15.610597        1.803787
 H          -7.724394      -15.155758        0.840751
 H          -8.136223      -15.948069        2.353656
 H          -4.565356      -17.261723        0.204538
 H          -5.579708      -16.044371       -0.568989
 H          -7.045801      -17.515066        0.704017
 H          -6.063924      -17.391699        2.118836
