20
 generated by VMD
 C         -49.997429     -142.942764      -45.541656
 N         -48.931923     -143.149033      -45.275154
 H         -52.228218     -139.761719      -45.442459
 H         -51.026085     -142.642609      -45.581440
 C         -52.617294     -140.419235      -46.251610
 C         -52.111580     -140.778854      -47.616692
 C         -54.094292     -140.515396      -45.939400
 C         -52.850338     -142.030807      -48.131359
 C         -54.711716     -141.709518      -46.648899
 C         -54.308220     -141.927063      -48.038960
 H         -51.010185     -140.855804      -47.457523
 H         -52.180504     -139.913086      -48.330292
 H         -54.364990     -140.686554      -44.929852
 H         -54.472527     -139.627029      -46.265743
 H         -52.496719     -143.045654      -47.569557
 H         -52.559124     -142.221283      -49.250813
 H         -55.835564     -141.762299      -46.682434
 H         -54.346298     -142.446381      -45.883991
 H         -54.848911     -142.867493      -48.489929
 H         -54.681824     -141.087173      -48.773834
