20
 generated by VMD
 C         -18.298229      -49.115307       -7.790728
 N         -19.165173      -49.820004       -7.928998
 H         -16.165056      -47.341812      -10.061979
 H         -16.781651      -48.902885      -10.718648
 C         -16.490438      -47.833885      -11.000416
 C         -15.261307      -47.958298      -11.888181
 C         -17.675943      -47.170818      -11.622011
 C         -15.544884      -48.179192      -13.336991
 C         -17.992910      -47.784103      -12.957862
 C         -16.811604      -47.501652      -13.935198
 H         -14.539479      -48.648590      -11.367285
 H         -14.629228      -47.065502      -11.878997
 H         -18.559105      -47.152584      -10.996579
 H         -17.494993      -46.099541      -11.717820
 H         -15.601653      -49.269531      -13.503857
 H         -14.667476      -47.917549      -13.946567
 H         -18.883411      -47.292950      -13.350750
 H         -18.210903      -48.836727      -12.858579
 H         -17.016685      -47.882523      -14.982793
 H         -16.575901      -46.369888      -13.995791
