20
 generated by VMD
 C         -20.750271      -64.154701      -16.574842
 N         -19.761263      -63.654922      -16.903360
 H         -23.125051      -63.632462      -17.671968
 H         -21.622282      -64.928574      -16.458878
 C         -23.838175      -64.471832      -17.805458
 C         -24.588305      -64.405800      -19.074360
 C         -24.396811      -65.266182      -16.667822
 C         -24.780138      -65.811119      -19.652941
 C         -24.630476      -66.685112      -17.122673
 C         -25.444324      -66.601898      -18.475168
 H         -23.897751      -63.803398      -19.791800
 H         -25.599737      -64.001259      -18.868029
 H         -23.704159      -65.118904      -15.707991
 H         -25.366531      -64.862274      -16.360712
 H         -23.820896      -66.382454      -19.736094
 H         -25.424646      -65.879227      -20.546789
 H         -25.118481      -67.397423      -16.401770
 H         -23.621912      -67.055847      -17.332445
 H         -25.589207      -67.634102      -18.891544
 H         -26.471790      -66.232903      -18.296135
