20
 generated by VMD
 C         -47.655598     -136.679138      -45.940151
 N         -46.948406     -136.124969      -46.739697
 H         -51.105785     -135.528564      -45.661415
 H         -47.996647     -137.101913      -44.961910
 C         -51.335751     -136.472839      -45.244614
 C         -51.973148     -137.521225      -46.126488
 C         -51.983463     -136.376328      -43.874100
 C         -52.013889     -138.861786      -45.445759
 C         -51.905582     -137.755020      -43.193501
 C         -52.653252     -138.814835      -44.055569
 H         -51.616734     -137.530594      -47.116985
 H         -53.064781     -137.182205      -46.262897
 H         -51.444237     -135.549225      -43.342640
 H         -52.993618     -135.901352      -44.019257
 H         -51.011257     -139.256592      -45.248837
 H         -52.600277     -139.619537      -46.058147
 H         -52.298286     -137.714508      -42.218876
 H         -50.818707     -138.244705      -43.086605
 H         -52.750023     -139.848419      -43.460732
 H         -53.750977     -138.601929      -44.023445
