20
 generated by VMD
 C          -1.075124      -10.770961        0.945618
 N          -1.502281       -9.740650        1.043498
 H          -3.479868      -12.437304        0.708895
 H          -4.470634      -12.217969        2.115674
 C          -4.133115      -12.965865        1.405409
 C          -3.310293      -13.944813        2.282387
 C          -5.388716      -13.670169        0.836038
 C          -4.141155      -14.705154        3.363437
 C          -6.160243      -14.397223        1.878713
 C          -5.347890      -15.424103        2.608618
 H          -2.497147      -13.350534        2.800689
 H          -2.883252      -14.683801        1.595224
 H          -5.956063      -12.843486        0.319222
 H          -5.029540      -14.311935        0.002266
 H          -4.621938      -14.152227        4.178868
 H          -3.583206      -15.547941        3.858349
 H          -6.925056      -14.950295        1.358058
 H          -6.678195      -13.712055        2.522764
 H          -6.025562      -15.909629        3.309714
 H          -4.954399      -16.248018        1.957999
