20
 generated by VMD
 C         -19.895153      -51.457684      -10.214949
 N         -20.737373      -51.189873       -9.505690
 H         -17.270914      -48.786369      -10.072587
 H         -19.288237      -51.849304      -11.293248
 C         -17.207870      -48.991402      -11.196032
 C         -16.354401      -50.127750      -11.643687
 C         -17.387247      -47.790989      -12.121426
 C         -16.482592      -50.530788      -13.133778
 C         -17.494778      -48.328773      -13.582983
 C         -16.369999      -49.309139      -14.031549
 H         -16.613476      -51.069939      -11.045051
 H         -15.305312      -49.978230      -11.353468
 H         -18.367100      -47.407009      -11.821951
 H         -16.595448      -47.001179      -12.018285
 H         -17.529898      -50.951599      -13.305030
 H         -15.819062      -51.377129      -13.373627
 H         -17.416222      -47.481659      -14.313490
 H         -18.484850      -48.770920      -13.828065
 H         -16.536644      -49.598862      -15.093063
 H         -15.330779      -48.883438      -13.881389
