20
 generated by VMD
 C         -10.556670      -37.645267       -7.472372
 N         -11.473997      -37.133297       -7.890393
 H         -12.566875      -39.846619       -8.111952
 H         -13.903471      -39.496914       -7.053284
 C         -13.635125      -40.041241       -7.994519
 C         -13.902671      -41.516953       -7.900922
 C         -14.419592      -39.409092       -9.073650
 C         -15.385715      -41.839714       -7.749330
 C         -15.899530      -39.709583       -8.898152
 C         -16.170717      -41.200466       -8.791361
 H         -13.318312      -41.991119       -7.085635
 H         -13.373136      -41.972794       -8.751020
 H         -14.218978      -38.301659       -9.071033
 H         -14.054280      -39.672268      -10.055356
 H         -15.849145      -41.620399       -6.751266
 H         -15.518531      -42.925285       -7.795794
 H         -16.466438      -39.355915       -9.842508
 H         -16.338524      -39.236893       -8.066368
 H         -17.234142      -41.398823       -8.646771
 H         -15.920525      -41.581394       -9.753012
