20
 generated by VMD
 C         -31.757126      -76.495338      -24.650206
 N         -31.801582      -76.905304      -25.736881
 H         -29.446171      -77.263718      -22.568092
 H         -31.664324      -76.086517      -23.548258
 C         -28.552668      -77.791176      -22.199854
 C         -27.502611      -78.046364      -23.216373
 C         -28.628582      -78.588356      -21.041258
 C         -26.144579      -78.332092      -22.692064
 C         -27.204695      -79.021133      -20.484045
 C         -26.182253      -79.307793      -21.559216
 H         -27.570011      -77.335732      -24.036907
 H         -27.803112      -78.989632      -23.710615
 H         -29.352438      -78.099365      -20.313658
 H         -29.240677      -79.533363      -21.285883
 H         -25.744349      -77.393021      -22.259159
 H         -25.476994      -78.771385      -23.497385
 H         -27.422621      -79.968498      -19.833876
 H         -26.731804      -78.224327      -19.795055
 H         -25.203665      -79.277016      -21.169909
 H         -26.371437      -80.309708      -21.928652
