20
 generated by VMD
 C         -70.681267     -181.909027      -63.928272
 N         -69.675766     -182.539520      -63.851086
 H         -68.764328     -181.002563      -61.636387
 H         -71.604156     -181.385056      -64.060371
 C         -67.842796     -180.680283      -61.074753
 C         -66.958839     -181.897125      -60.823486
 C         -67.337944     -179.341156      -60.766762
 C         -65.522377     -181.607574      -60.956596
 C         -65.800354     -179.202301      -60.744556
 C         -65.017212     -180.444077      -60.174950
 H         -67.317093     -182.571213      -61.622860
 H         -67.196640     -182.244110      -59.820610
 H         -67.786278     -178.637802      -61.459396
 H         -67.538895     -179.074707      -59.759163
 H         -65.338982     -181.652832      -62.045399
 H         -65.054161     -182.605637      -60.728336
 H         -65.605492     -178.285416      -60.154091
 H         -65.428307     -178.980377      -61.754799
 H         -63.912178     -180.213715      -60.144123
 H         -65.329819     -180.756561      -59.146587
