20
 generated by VMD
 C         -41.020054     -104.448441      -36.155449
 N         -42.023338     -104.984985      -36.423199
 H         -38.301674     -104.163651      -33.308372
 H         -40.207058     -103.795753      -35.990730
 C         -38.227875     -105.239700      -32.959785
 C         -37.007687     -105.677650      -32.185059
 C         -39.235954     -106.280830      -33.313976
 C         -37.283665     -106.669746      -31.193735
 C         -39.470123     -107.385414      -32.311417
 C         -38.095940     -107.804329      -31.671925
 H         -36.574512     -104.738640      -31.808363
 H         -36.251320     -105.964699      -32.826271
 H         -40.211502     -105.674973      -33.396927
 H         -39.056530     -106.810043      -34.223457
 H         -37.991707     -106.299118      -30.379204
 H         -36.366028     -106.967232      -30.606613
 H         -39.841072     -108.373825      -32.720158
 H         -40.031487     -106.918091      -31.526638
 H         -38.339565     -108.463608      -30.855072
 H         -37.433308     -108.344894      -32.397339
