20
 generated by VMD
 C         -38.584831     -113.761589      -35.587231
 N         -38.061279     -114.787895      -35.623871
 H         -41.205826     -114.690773      -36.265369
 H         -38.933487     -112.684990      -35.580139
 C         -42.290752     -114.684875      -36.416874
 C         -42.626198     -114.533447      -37.809765
 C         -43.395988     -114.473755      -35.425732
 C         -43.697708     -115.573822      -38.168636
 C         -44.687004     -115.264214      -35.862320
 C         -44.940304     -115.352852      -37.350140
 H         -41.818752     -114.645538      -38.445606
 H         -42.949242     -113.563843      -38.050762
 H         -43.079651     -114.713173      -34.447056
 H         -43.555725     -113.426918      -35.549088
 H         -43.377491     -116.618004      -37.954269
 H         -44.003048     -115.502357      -39.255981
 H         -45.402802     -114.760445      -35.304085
 H         -44.676704     -116.235344      -35.477276
 H         -45.580212     -116.096252      -37.668491
 H         -45.553680     -114.489090      -37.667355
