20
 generated by VMD
 C         -11.960034      -31.450830       -8.253710
 N         -12.032854      -30.652975       -7.494706
 H         -11.919014      -34.775642       -7.992262
 H         -12.833485      -34.100521       -6.712692
 C         -11.948861      -34.645531       -6.905232
 C         -10.814493      -33.861015       -6.127447
 C         -12.148635      -36.013466       -6.241820
 C         -11.192503      -33.742901       -4.664245
 C         -12.490146      -35.931305       -4.788614
 C         -11.549396      -35.060982       -3.983744
 H         -10.650949      -32.940685       -6.610294
 H          -9.874495      -34.432758       -6.182161
 H         -12.908793      -36.581085       -6.758766
 H         -11.220017      -36.606937       -6.322468
 H         -12.144599      -33.156158       -4.590548
 H         -10.500045      -33.138149       -4.060897
 H         -12.559741      -36.902458       -4.310048
 H         -13.544943      -35.452003       -4.658195
 H         -11.960574      -34.911015       -3.013186
 H         -10.587357      -35.620003       -3.871624
