20
 generated by VMD
 C         -29.464113      -89.571716      -25.915751
 N         -29.524559      -88.600800      -25.230257
 H         -31.618841      -90.581383      -27.523493
 H         -29.207775      -90.453697      -26.440849
 C         -32.483963      -90.013054      -27.410002
 C         -33.476692      -90.283066      -26.305607
 C         -32.897408      -89.340462      -28.616980
 C         -34.291042      -89.091278      -25.937078
 C         -33.870174      -88.168625      -28.274450
 C         -34.954521      -88.551117      -27.202757
 H         -32.864403      -90.588745      -25.499592
 H         -34.144836      -91.005371      -26.637566
 H         -32.107121      -88.805153      -29.181292
 H         -33.298889      -90.118126      -29.350479
 H         -33.723328      -88.259567      -25.492882
 H         -35.085274      -89.360115      -25.189911
 H         -34.165829      -87.772324      -29.197529
 H         -33.208233      -87.475090      -27.764904
 H         -35.645660      -87.777199      -27.074526
 H         -35.489719      -89.303497      -27.722963
