20
 generated by VMD
 C         -58.992420     -159.793762      -57.085136
 N         -58.279526     -160.099365      -58.011227
 H         -58.858711     -161.203354      -54.831528
 H         -59.610645     -159.548035      -56.225594
 C         -59.499619     -161.799225      -54.192856
 C         -59.015961     -162.181992      -52.791943
 C         -60.885910     -162.114899      -54.625587
 C         -60.008526     -161.886459      -51.698437
 C         -61.793213     -161.975235      -53.452747
 C         -61.372284     -162.465363      -52.060043
 H         -58.048580     -161.558914      -52.670288
 H         -58.557938     -163.169983      -52.758308
 H         -61.200062     -161.480789      -55.407570
 H         -60.803211     -163.200745      -54.895531
 H         -59.964542     -160.847748      -51.403019
 H         -59.769794     -162.568466      -50.747910
 H         -62.758228     -162.556213      -53.521141
 H         -62.008270     -160.856827      -53.421757
 H         -62.192696     -162.313446      -51.280243
 H         -61.321243     -163.566223      -52.115822
