20
 generated by VMD
 C         -79.585869     -205.356857      -71.793404
 N         -79.760048     -206.521591      -71.617538
 H         -77.045395     -204.088577      -71.775299
 H         -79.496246     -204.275055      -71.730522
 C         -76.396088     -204.177490      -70.903275
 C         -75.309509     -203.214111      -71.043411
 C         -76.428238     -205.566986      -70.291718
 C         -74.304619     -203.421936      -69.931229
 C         -75.365105     -205.586060      -69.172729
 C         -74.044540     -204.907898      -69.720932
 H         -75.579971     -202.173782      -71.106087
 H         -74.746948     -203.444183      -71.976120
 H         -77.357689     -206.045441      -69.942894
 H         -75.964012     -206.183121      -71.066742
 H         -74.566345     -202.912506      -69.031700
 H         -73.383957     -203.056488      -70.189827
 H         -75.004295     -206.558807      -68.717865
 H         -75.875916     -205.052948      -68.305420
 H         -73.196686     -205.135300      -69.094948
 H         -73.858398     -205.389740      -70.722328
