20
 generated by VMD
 C         -23.990864      -69.743515      -16.785364
 N         -24.380594      -70.083076      -15.736822
 H         -23.674332      -67.231071      -18.991606
 H         -23.867313      -69.471130      -17.781841
 C         -24.466427      -67.790382      -19.393562
 C         -23.807320      -68.573067      -20.587519
 C         -25.963062      -67.517403      -19.322092
 C         -24.619228      -69.827461      -21.016232
 C         -26.587751      -68.787338      -19.736067
 C         -26.085377      -69.475601      -21.035469
 H         -22.673555      -68.752472      -20.352814
 H         -23.774611      -67.819153      -21.406525
 H         -26.408403      -67.208313      -18.411020
 H         -26.205866      -66.707039      -19.906103
 H         -24.360102      -70.678482      -20.294878
 H         -24.232227      -70.104347      -21.993664
 H         -27.678253      -68.686310      -19.949203
 H         -26.528345      -69.634308      -18.979963
 H         -26.712172      -70.367416      -21.102989
 H         -26.449705      -68.850159      -21.871080
