20
 generated by VMD
 C         -10.767876      -40.294502       -7.115163
 N         -11.465053      -40.281502       -6.262097
 H         -13.701128      -40.699783       -8.933862
 H         -15.221330      -39.973091       -9.371301
 C         -14.714693      -40.915947       -9.219531
 C         -15.518846      -41.626499       -8.174911
 C         -14.563993      -41.782787      -10.452919
 C         -16.836361      -42.089745       -8.647383
 C         -15.901673      -42.144917      -10.964590
 C         -16.711439      -42.947613       -9.904708
 H         -15.583832      -41.034946       -7.251734
 H         -14.985887      -42.508999       -7.861432
 H         -13.963103      -41.378296      -11.257021
 H         -13.941137      -42.653122      -10.164035
 H         -17.559895      -41.290913       -8.766010
 H         -17.372084      -42.659859       -7.845141
 H         -15.793204      -42.888660      -11.818205
 H         -16.479256      -41.301613      -11.259114
 H         -17.701698      -43.189152      -10.335157
 H         -16.089706      -43.841309       -9.672855
