20
 generated by VMD
 C         -38.928040     -111.487167      -36.549473
 N         -38.361271     -110.453232      -36.557346
 H         -40.099766     -114.044296      -34.886845
 H         -39.538048     -112.385155      -36.310345
 C         -41.078510     -113.656509      -35.265625
 C         -41.574215     -113.873405      -36.692844
 C         -41.805981     -112.769958      -34.290112
 C         -43.178928     -114.068283      -36.696293
 C         -43.362907     -112.840591      -34.431110
 C         -43.916286     -113.021492      -35.833824
 H         -41.209534     -114.900551      -37.008789
 H         -41.256458     -113.080002      -37.374832
 H         -41.675385     -113.233612      -33.322811
 H         -41.645321     -111.731354      -34.289135
 H         -43.459351     -115.029037      -36.265820
 H         -43.533669     -114.203491      -37.670094
 H         -43.825184     -111.856201      -34.144447
 H         -43.570045     -113.733429      -33.809547
 H         -44.933338     -113.404465      -35.792896
 H         -43.988220     -112.007339      -36.420986
