20
 generated by VMD
 C         -11.429622      -37.416260       -7.144449
 N         -11.386979      -37.800140       -8.164181
 H         -12.469116      -40.469482       -8.352345
 H         -13.539700      -40.007942       -7.180247
 C         -13.487724      -40.469452       -8.113319
 C         -14.054499      -41.846443       -7.949830
 C         -14.218362      -39.748230       -9.181165
 C         -15.586122      -41.883789       -7.875477
 C         -15.717695      -39.650372       -8.902776
 C         -16.225407      -41.066422       -8.938050
 H         -13.557173      -42.296963       -7.043469
 H         -13.685997      -42.555580       -8.702863
 H         -13.829611      -38.680267       -9.332609
 H         -14.030011      -40.183033      -10.180715
 H         -15.961823      -41.538727       -6.868187
 H         -15.965446      -42.918365       -7.885897
 H         -16.269659      -39.099110       -9.733996
 H         -15.964204      -39.197422       -7.977596
 H         -17.324024      -41.031189       -8.898166
 H         -15.977160      -41.517605       -9.870716
