20
 generated by VMD
 C         -11.999747      -37.700993       -7.806630
 N         -11.058493      -37.670685       -7.157312
 H         -12.530991      -41.507118       -8.760722
 H         -13.412804      -40.477936       -7.568882
 C         -13.561893      -41.170528       -8.475475
 C         -14.400831      -42.339153       -8.047071
 C         -14.159026      -40.345387       -9.618648
 C         -15.868890      -41.966610       -7.926628
 C         -15.522741      -39.852707       -9.222680
 C         -16.433111      -41.025639       -8.969442
 H         -14.014458      -42.842358       -7.115396
 H         -14.322175      -43.198105       -8.730729
 H         -13.465642      -39.502655       -9.897912
 H         -14.131429      -40.923359      -10.522635
 H         -15.995158      -41.527275       -6.919491
 H         -16.509884      -42.847473       -7.797609
 H         -15.944743      -39.142540       -9.966668
 H         -15.392264      -39.321560       -8.246590
 H         -17.393644      -40.583527       -8.537759
 H         -16.692719      -41.629974       -9.856348
