20
 generated by VMD
 C          -9.326468      -24.693645        0.933659
 N          -9.937941      -25.368870        1.565655
 H          -6.814415      -23.142918       -0.696963
 H          -8.270033      -22.688894       -1.324182
 C          -7.293864      -23.015976       -1.628690
 C          -7.444641      -24.406715       -2.374760
 C          -6.532671      -21.986958       -2.461757
 C          -8.038488      -24.158236       -3.785388
 C          -7.083378      -21.824917       -3.858012
 C          -7.192175      -23.132458       -4.596736
 H          -8.138329      -25.047970       -1.816752
 H          -6.466926      -24.878735       -2.271621
 H          -6.639714      -20.987747       -1.969017
 H          -5.469590      -22.210512       -2.606428
 H          -9.093860      -23.902056       -3.685364
 H          -8.028179      -25.058859       -4.332313
 H          -6.312913      -21.228752       -4.354457
 H          -8.015528      -21.297585       -3.919609
 H          -7.808915      -22.823566       -5.514670
 H          -6.225142      -23.606411       -4.863826
