20
 generated by VMD
 C         -31.115822      -77.615883      -25.706530
 N         -31.641548      -77.945862      -26.639345
 H         -29.328152      -78.329948      -22.876274
 H         -30.893337      -77.252266      -24.753138
 C         -28.948414      -79.332291      -23.158257
 C         -27.466402      -79.602570      -23.392115
 C         -29.732058      -80.631622      -22.865168
 C         -26.910255      -80.198067      -22.135632
 C         -29.229082      -81.203125      -21.485859
 C         -27.731745      -81.262482      -21.323500
 H         -26.874033      -78.720398      -23.781916
 H         -27.392061      -80.321884      -24.217955
 H         -30.864519      -80.459862      -22.817673
 H         -29.584248      -81.371094      -23.571077
 H         -26.658119      -79.399666      -21.346001
 H         -25.949818      -80.592842      -22.459648
 H         -29.486170      -82.253273      -21.392099
 H         -29.512306      -80.536331      -20.585878
 H         -27.499481      -81.213791      -20.280977
 H         -27.524290      -82.247375      -21.745199
