20
 generated by VMD
 C         -65.325249     -177.217422      -56.299061
 N         -65.981102     -177.189194      -55.330627
 H         -64.142899     -174.785507      -59.044590
 H         -64.648773     -177.345764      -57.172558
 C         -64.442001     -173.917725      -59.505997
 C         -65.251610     -172.993393      -58.729549
 C         -63.548962     -173.463760      -60.718075
 C         -64.781082     -171.567917      -58.707516
 C         -63.140083     -171.983307      -60.616302
 C         -64.192795     -171.116714      -60.088871
 H         -65.354607     -173.364029      -57.734241
 H         -66.330475     -172.866898      -59.081989
 H         -62.630333     -174.182632      -60.677048
 H         -64.176025     -173.680801      -61.678329
 H         -63.926434     -171.417038      -58.019550
 H         -65.588127     -170.898972      -58.337910
 H         -62.686180     -171.587753      -61.513355
 H         -62.393055     -171.990601      -59.868992
 H         -63.867249     -170.025177      -60.003559
 H         -65.055862     -171.171173      -60.747101
