20
 generated by VMD
 C          -1.131698      -10.819009        0.898011
 N          -1.410451       -9.798332        1.150617
 H          -3.597145      -12.687374        0.602899
 H          -4.586469      -12.121777        2.012854
 C          -4.200298      -13.015217        1.455557
 C          -3.378659      -13.999478        2.259961
 C          -5.368454      -13.705971        0.764120
 C          -4.173102      -14.677742        3.302932
 C          -6.226505      -14.510944        1.781416
 C          -5.303032      -15.397565        2.677563
 H          -2.523796      -13.470397        2.677058
 H          -2.968168      -14.731961        1.550533
 H          -5.973740      -13.038472        0.188287
 H          -5.011420      -14.374675       -0.018154
 H          -4.477364      -13.841029        3.947013
 H          -3.530700      -15.372459        3.829864
 H          -7.038748      -15.066296        1.250456
 H          -6.678658      -13.754519        2.465073
 H          -5.895325      -15.925344        3.445348
 H          -4.880385      -16.102869        1.977385
