20
 generated by VMD
 C         -11.645331      -26.757362       -0.662026
 N         -12.578370      -26.376507       -1.128858
 H         -10.320857      -26.239361       -3.786107
 H          -9.309395      -25.622561       -5.123877
 C          -9.305074      -26.050838       -4.123395
 C          -8.570129      -27.392746       -4.265464
 C          -8.615982      -25.153618       -3.085412
 C          -7.030678      -27.239569       -4.360458
 C          -7.146755      -24.933674       -3.407652
 C          -6.371743      -26.237932       -3.439382
 H          -8.864932      -28.048460       -5.127102
 H          -8.876783      -28.074833       -3.393477
 H          -9.222314      -24.249159       -3.204718
 H          -8.742478      -25.503658       -2.094791
 H          -6.717127      -27.150389       -5.422260
 H          -6.637746      -28.246695       -4.154893
 H          -6.714732      -24.232138       -2.652844
 H          -6.886128      -24.443333       -4.354912
 H          -5.322368      -26.039965       -3.756745
 H          -6.239199      -26.631912       -2.407499
