20
 generated by VMD
 C         -40.384686     -100.992043      -32.309769
 N         -41.167862     -100.856987      -31.460657
 H         -37.962299     -103.301140      -32.513668
 H         -39.666588     -101.225235      -33.157936
 C         -37.224033     -102.788849      -31.874163
 C         -36.123646     -102.436203      -32.897308
 C         -37.188057     -102.442490      -30.535378
 C         -35.262978     -101.310051      -32.415794
 C         -36.520580     -101.106407      -30.243458
 C         -35.163433     -101.228477      -30.850771
 H         -36.680622     -102.190948      -33.850983
 H         -35.564739     -103.334030      -33.169643
 H         -38.162983     -102.300133      -30.080420
 H         -36.670586     -103.278160      -29.929308
 H         -35.810139     -100.468544      -32.736332
 H         -34.403114     -101.346138      -33.040714
 H         -36.508949     -100.886482      -29.144213
 H         -37.108646     -100.345268      -30.625246
 H         -34.708229     -100.262215      -30.544069
 H         -34.676792     -102.094231      -30.411264
