20
 generated by VMD
 C         -41.181572     -102.984993      -35.695530
 N         -41.254120     -104.127258      -35.472050
 H         -39.322655     -104.253090      -33.481209
 H         -41.036510     -101.959335      -35.864468
 C         -38.661724     -105.066658      -32.968365
 C         -37.253555     -104.777763      -32.908588
 C         -39.124493     -106.460693      -32.771317
 C         -36.678120     -105.270943      -31.548965
 C         -38.681145     -106.782791      -31.284185
 C         -37.143879     -106.605499      -31.070854
 H         -37.091526     -103.716026      -32.963917
 H         -36.844440     -105.188683      -33.793800
 H         -40.292965     -106.456215      -32.952644
 H         -38.674728     -107.144974      -33.458313
 H         -36.681164     -104.606918      -30.681351
 H         -35.651085     -105.334663      -31.958641
 H         -39.064774     -107.804558      -31.002800
 H         -39.143196     -106.115295      -30.596584
 H         -36.994095     -106.800453      -30.036432
 H         -36.533169     -107.363228      -31.658600
