20
 generated by VMD
 C         -38.562607     -112.573341      -35.768074
 N         -38.221893     -111.945747      -36.711323
 H         -40.867039     -114.994781      -35.071388
 H         -39.107864     -112.870018      -34.915005
 C         -41.628105     -114.307083      -35.453083
 C         -41.799007     -114.398331      -36.940014
 C         -42.580376     -113.427872      -34.711727
 C         -43.362419     -114.670853      -37.391125
 C         -44.108955     -113.637672      -35.127296
 C         -44.373600     -113.755180      -36.591473
 H         -41.158508     -115.090958      -37.485458
 H         -41.820198     -113.413719      -37.220798
 H         -42.505089     -113.467178      -33.592739
 H         -42.285969     -112.421356      -35.087383
 H         -43.417397     -115.733826      -37.170429
 H         -43.429882     -114.458382      -38.427750
 H         -44.606373     -112.836159      -34.536232
 H         -44.514256     -114.546051      -34.613964
 H         -45.430214     -114.054001      -36.753586
 H         -44.148922     -112.720558      -37.003952
