20
 generated by VMD
 C         -39.303047     -107.787750      -37.805622
 N         -39.042782     -106.678581      -37.864326
 H         -39.442814     -108.087540      -34.267437
 H         -39.695374     -108.740868      -37.494884
 C         -40.039619     -109.053223      -34.140480
 C         -39.289040     -110.407547      -34.028183
 C         -41.584049     -109.195160      -34.173306
 C         -39.710304     -110.982529      -32.705837
 C         -42.059578     -109.925514      -32.934181
 C         -41.233425     -111.251572      -32.720448
 H         -38.225170     -110.181404      -34.165157
 H         -39.683380     -110.957657      -34.917423
 H         -42.168007     -108.244141      -34.390469
 H         -41.826111     -109.788651      -35.051163
 H         -39.423634     -110.570892      -31.729986
 H         -39.239021     -111.877357      -32.656647
 H         -43.080696     -110.271271      -32.985271
 H         -41.904266     -109.354652      -31.944584
 H         -41.527336     -111.749771      -31.841522
 H         -41.429287     -111.988457      -33.648087
