20
 generated by VMD
 C         -38.840622     -107.991066      -37.494247
 N         -38.991924     -106.927582      -37.963764
 H         -40.085751     -108.425438      -35.160931
 H         -38.703690     -108.863312      -36.851620
 C         -40.412453     -109.159637      -34.390804
 C         -39.441528     -110.437851      -34.264183
 C         -41.914104     -109.362099      -34.132877
 C         -39.800537     -111.135056      -33.004036
 C         -42.055569     -110.103676      -32.777519
 C         -41.295605     -111.432335      -32.861343
 H         -38.440018     -109.988350      -34.284260
 H         -39.673664     -111.096138      -35.141830
 H         -42.453873     -108.395096      -34.095604
 H         -42.297447     -110.023796      -34.861797
 H         -39.557625     -110.543976      -32.059841
 H         -39.380650     -112.235580      -32.901379
 H         -43.060516     -110.202431      -32.507736
 H         -41.673901     -109.539581      -31.894339
 H         -41.398933     -111.966537      -31.881977
 H         -41.656975     -112.083817      -33.577332
