20
 generated by VMD
 C         -78.615807     -204.415665      -70.600471
 N         -79.647896     -204.088379      -70.180038
 H         -76.216400     -202.970123      -67.827782
 H         -77.704170     -204.672028      -71.171417
 C         -75.523018     -202.737244      -68.615952
 C         -75.797516     -201.613113      -69.566246
 C         -74.301987     -203.573868      -68.764839
 C         -74.791069     -201.528931      -70.735161
 C         -73.022835     -202.853485      -69.337517
 C         -73.354057     -201.749313      -70.373711
 H         -75.726387     -200.703995      -69.004478
 H         -76.808846     -201.658600      -70.029472
 H         -73.955437     -203.879013      -67.787277
 H         -74.552498     -204.477005      -69.377632
 H         -74.927765     -200.634308      -71.335884
 H         -74.983971     -202.396210      -71.439102
 H         -72.379486     -203.580811      -69.855728
 H         -72.535721     -202.483353      -68.469940
 H         -72.960808     -200.780518      -70.128700
 H         -72.831680     -201.971603      -71.351303
