20
 generated by VMD
 C         -59.274548     -152.208664      -50.761894
 N         -59.538189     -153.079010      -50.046246
 H         -57.102516     -151.179703      -49.012173
 H         -59.124973     -151.341232      -51.329861
 C         -56.082310     -151.029480      -49.290066
 C         -55.221836     -152.057983      -49.843586
 C         -55.537373     -149.634140      -49.380367
 C         -54.437202     -151.632599      -51.092766
 C         -54.729317     -149.136780      -50.537617
 C         -53.879910     -150.274597      -51.042412
 H         -55.840809     -152.818375      -50.161453
 H         -54.591930     -152.524826      -49.067692
 H         -56.270138     -148.869583      -49.002914
 H         -54.733276     -149.621140      -48.619644
 H         -55.117176     -151.725281      -51.979275
 H         -53.750984     -152.399567      -51.380329
 H         -54.038902     -148.307449      -50.023834
 H         -55.287823     -148.752319      -51.349884
 H         -53.584652     -150.123428      -52.128506
 H         -53.032684     -150.427277      -50.506264
