20
 generated by VMD
 C         -70.600227     -196.847839      -66.277077
 N         -69.855797     -196.118652      -65.807198
 H         -72.606773     -194.832748      -64.657417
 H         -71.288895     -197.522156      -66.685089
 C         -72.985306     -194.619339      -65.614471
 C         -72.413849     -193.271454      -66.026535
 C         -74.044350     -195.292328      -66.439308
 C         -73.169716     -192.731323      -67.226990
 C         -73.572395     -195.177078      -67.892418
 C         -73.430405     -193.704071      -68.348251
 H         -71.356987     -193.459091      -66.405724
 H         -72.625267     -192.573059      -65.189369
 H         -74.257935     -196.308456      -66.031067
 H         -75.010277     -194.830093      -66.231339
 H         -72.616539     -191.892105      -67.665161
 H         -74.113083     -192.439560      -66.806145
 H         -74.286911     -195.592255      -68.604858
 H         -72.620811     -195.710358      -67.980362
 H         -72.553177     -193.627960      -68.983765
 H         -74.356995     -193.246277      -68.971870
