20
 generated by VMD
 C         -40.734032     -100.203377      -30.089293
 N         -40.784992     -100.332504      -28.940792
 H         -37.323563     -100.121620      -30.309635
 H         -40.687401      -99.811974      -31.102350
 C         -36.409996      -99.918663      -30.853138
 C         -36.077530      -99.732132      -32.278214
 C         -35.405029      -99.775604      -29.769352
 C         -35.016682      -98.559143      -32.439995
 C         -34.306042      -98.579094      -30.008989
 C         -33.727859      -98.605087      -31.482227
 H         -36.940144      -99.404961      -32.818485
 H         -35.696960     -100.689690      -32.702374
 H         -35.879677      -99.688919      -28.825396
 H         -34.825577     -100.711441      -29.801497
 H         -35.657497      -97.683914      -32.364063
 H         -34.725288      -98.614189      -33.501133
 H         -33.531456      -98.708527      -29.239233
 H         -34.949932      -97.718819      -29.971071
 H         -33.061817      -97.748619      -31.634205
 H         -33.154953      -99.580254      -31.571257
