20
 generated by VMD
 C         -39.982723     -100.942307      -31.024984
 N         -40.405586      -99.977463      -31.478493
 H         -37.372978     -103.130516      -31.341301
 H         -39.681000     -101.875366      -30.744896
 C         -36.850880     -102.210831      -31.356653
 C         -36.291908     -101.689919      -32.549576
 C         -36.111938     -101.909134      -30.112316
 C         -36.126526     -100.165321      -32.432495
 C         -35.903469     -100.457993      -30.062712
 C         -35.145641      -99.867424      -31.318249
 H         -36.862980     -101.856506      -33.462944
 H         -35.327259     -102.196434      -32.793827
 H         -36.716171     -102.208076      -29.266874
 H         -35.087200     -102.275009      -30.097952
 H         -37.049854      -99.640953      -32.337795
 H         -35.765549      -99.871819      -33.444229
 H         -35.323540     -100.095016      -29.156891
 H         -36.834942      -99.979050      -29.954023
 H         -34.981754      -98.783806      -31.222248
 H         -34.098248     -100.326897      -31.461189
