20
 generated by VMD
 C         -26.879402      -71.991028      -17.547516
 N         -27.304064      -73.042038      -17.297274
 H         -24.642035      -70.358658      -18.544262
 H         -26.492336      -70.869781      -17.682236
 C         -24.930729      -70.442719      -19.598900
 C         -24.325186      -71.627701      -20.311073
 C         -25.766968      -69.399307      -20.418045
 C         -25.074348      -72.190697      -21.448725
 C         -26.685051      -70.032288      -21.524937
 C         -25.900465      -71.121223      -22.289469
 H         -24.051025      -72.442719      -19.526033
 H         -23.253548      -71.211403      -20.662031
 H         -26.468803      -68.826950      -19.812458
 H         -25.022840      -68.712212      -20.860920
 H         -25.718971      -72.941536      -21.006775
 H         -24.406151      -72.710327      -22.102272
 H         -27.135593      -69.235001      -22.240936
 H         -27.564863      -70.633293      -21.008217
 H         -26.615322      -71.641090      -22.977505
 H         -25.281296      -70.686745      -23.022524
