20
 generated by VMD
 C         -58.364742     -159.027161      -57.995209
 N         -59.260471     -158.953644      -57.343651
 H         -59.451576     -160.003418      -54.612671
 H         -57.500656     -159.148193      -58.615547
 C         -59.573471     -160.797836      -53.858364
 C         -58.618809     -160.993866      -52.710979
 C         -60.635559     -161.698120      -54.018562
 C         -59.344654     -161.195099      -51.346603
 C         -61.433178     -161.713013      -52.758335
 C         -60.495491     -162.089294      -51.652180
 H         -58.085777     -160.098694      -52.796921
 H         -58.065262     -161.950592      -52.850517
 H         -61.283630     -161.346222      -54.941010
 H         -60.353428     -162.726700      -54.200867
 H         -59.667465     -160.206329      -50.809959
 H         -58.627495     -161.440063      -50.576099
 H         -62.355000     -162.322388      -52.809406
 H         -61.796410     -160.659561      -52.547974
 H         -61.063122     -162.151306      -50.672523
 H         -60.063854     -163.116150      -51.702831
