20
 generated by VMD
 C         -22.360113      -68.305649      -16.639906
 N         -22.139059      -68.583015      -15.525207
 H         -24.288931      -65.907425      -18.125607
 H         -22.759630      -68.169907      -17.627686
 C         -24.611319      -66.437111      -19.052303
 C         -23.982901      -67.136887      -20.218479
 C         -26.146242      -66.714005      -18.947960
 C         -24.493334      -68.607941      -20.228855
 C         -26.634401      -68.117081      -19.243658
 C         -25.996473      -68.776756      -20.391455
 H         -22.844116      -67.118553      -20.200296
 H         -24.149837      -66.718857      -21.165670
 H         -26.505144      -66.227020      -17.976120
 H         -26.599556      -66.000397      -19.728531
 H         -24.184971      -69.132713      -19.260725
 H         -24.088490      -69.230827      -21.063303
 H         -27.742048      -67.985886      -19.474049
 H         -26.504568      -68.573235      -18.250244
 H         -26.432245      -69.781593      -20.509274
 H         -26.196522      -68.364441      -21.370798
