20
 generated by VMD
 C         -51.307571     -145.542328      -44.056808
 N         -51.293705     -146.439774      -44.836914
 H         -53.352249     -144.768158      -46.538616
 H         -51.492119     -144.669037      -43.378490
 C         -53.704803     -144.338669      -47.501141
 C         -52.758125     -144.152481      -48.594341
 C         -54.776592     -143.272842      -47.296944
 C         -53.430412     -143.870911      -49.910534
 C         -55.480663     -142.889587      -48.682621
 C         -54.386200     -142.630188      -49.816662
 H         -52.161926     -144.967392      -48.682407
 H         -52.035908     -143.384674      -48.477486
 H         -55.582306     -143.427887      -46.541660
 H         -54.158459     -142.472519      -46.810471
 H         -54.080292     -144.760071      -50.253407
 H         -52.763245     -143.666962      -50.853825
 H         -56.062702     -141.996796      -48.617783
 H         -56.000019     -143.807800      -49.039104
 H         -54.848766     -142.637009      -50.789028
 H         -53.925442     -141.751846      -49.676186
