20
 generated by VMD
 C         -69.275459     -180.901321      -62.407650
 N         -70.143028     -180.151154      -62.198650
 H         -67.116959     -181.282364      -60.151134
 H         -68.487152     -181.612976      -62.607780
 C         -66.491547     -180.365738      -60.275543
 C         -65.055962     -180.357056      -60.665504
 C         -67.001503     -179.106247      -59.688934
 C         -64.621109     -179.091705      -61.338726
 C         -66.591728     -177.847137      -60.513317
 C         -65.117729     -177.857132      -60.632671
 H         -64.723579     -181.316864      -61.171307
 H         -64.469444     -180.451675      -59.650677
 H         -68.118401     -179.129166      -59.678295
 H         -66.692848     -178.943542      -58.709614
 H         -65.038277     -178.940994      -62.421684
 H         -63.493523     -179.044388      -61.313988
 H         -67.132065     -176.935333      -60.249004
 H         -67.013611     -177.976364      -61.545815
 H         -64.996353     -177.017410      -61.282959
 H         -64.649300     -177.532913      -59.584545
