20
 generated by VMD
 C         -13.019948      -28.690556       -5.839938
 N         -12.737584      -27.734388       -5.357915
 H         -11.486100      -31.193075       -3.450775
 H         -11.243414      -29.748720       -4.387345
 C         -10.694023      -30.481710       -3.796359
 C          -9.813342      -31.201647       -4.907103
 C          -9.973632      -29.756586       -2.687564
 C          -8.685883      -30.267574       -5.353920
 C          -8.678436      -29.025751       -3.091667
 C          -7.825859      -29.762529       -4.169011
 H         -10.348988      -31.453276       -5.795039
 H          -9.443006      -32.142372       -4.369323
 H         -10.654370      -29.088722       -2.136760
 H          -9.619372      -30.481789       -2.015218
 H          -9.160892      -29.352747       -5.785091
 H          -8.029381      -30.781929       -6.078582
 H          -8.067576      -28.763615       -2.235979
 H          -8.972953      -28.044054       -3.530490
 H          -7.160002      -28.932886       -4.598248
 H          -7.320465      -30.652884       -3.818450
