20
 generated by VMD
 C         -44.737549     -122.352310      -35.777294
 N         -44.790359     -122.995857      -34.796005
 H         -45.047962     -122.909805      -39.214199
 H         -44.996014     -121.746735      -36.714542
 C         -44.972229     -121.817635      -39.395618
 C         -43.520748     -121.374886      -39.683098
 C         -46.071392     -120.822006      -39.690380
 C         -43.285496     -120.243744      -40.580776
 C         -45.684223     -119.617332      -40.519974
 C         -44.322327     -119.094810      -40.396255
 H         -42.959938     -122.199913      -40.035542
 H         -43.174274     -121.157349      -38.649212
 H         -47.079147     -121.112427      -40.184570
 H         -46.344727     -120.489128      -38.674713
 H         -43.337643     -120.486435      -41.666496
 H         -42.276543     -119.949112      -40.614315
 H         -46.450363     -118.821007      -40.337498
 H         -45.856991     -119.880707      -41.519054
 H         -44.157364     -118.257996      -41.174721
 H         -44.173897     -118.614754      -39.353748
