20
 generated by VMD
 C         -44.917671     -122.534966      -35.519257
 N         -45.131287     -123.487923      -34.936031
 H         -45.268044     -122.792892      -39.136295
 H         -44.507099     -121.613289      -35.980007
 C         -44.950581     -121.840477      -39.402573
 C         -43.513725     -121.355278      -39.641251
 C         -46.028324     -120.784286      -39.606812
 C         -43.310276     -120.433342      -40.787106
 C         -45.706409     -119.776581      -40.699165
 C         -44.314678     -119.246811      -40.688313
 H         -42.873154     -122.203445      -39.843708
 H         -43.098763     -120.838142      -38.718567
 H         -46.988625     -121.419769      -39.655109
 H         -46.125175     -120.157700      -38.689648
 H         -43.326698     -121.063004      -41.731544
 H         -42.346752     -120.037811      -40.982845
 H         -46.517365     -119.038399      -40.792599
 H         -45.830338     -120.258835      -41.608849
 H         -44.183617     -118.554375      -41.589577
 H         -44.150219     -118.573860      -39.729557
