20
 generated by VMD
 C         -72.527321     -198.806198      -65.530182
 N         -73.522545     -199.296494      -65.842453
 H         -71.061859     -196.241074      -67.516228
 H         -71.588646     -198.228745      -65.583992
 C         -72.079987     -196.049927      -67.785240
 C         -72.936813     -195.091904      -67.057320
 C         -72.482513     -196.685364      -69.102631
 C         -74.239868     -194.983627      -67.731979
 C         -73.876678     -197.141891      -68.956215
 C         -74.799950     -196.405365      -67.950104
 H         -72.408249     -194.116776      -67.322159
 H         -73.037819     -195.305099      -66.012085
 H         -72.501137     -195.854874      -69.794174
 H         -71.881920     -197.576981      -69.337082
 H         -74.359520     -194.383057      -68.632973
 H         -74.966949     -194.488327      -67.067345
 H         -73.799850     -198.160751      -68.477219
 H         -74.214081     -197.406982      -69.958481
 H         -75.946602     -196.410797      -68.249748
 H         -74.801628     -196.933197      -67.079018
