20
 generated by VMD
 C         -31.044703      -75.096329      -21.469168
 N         -31.889000      -75.849739      -21.773207
 H         -28.524464      -76.133080      -20.698450
 H         -30.228668      -74.373703      -21.421410
 C         -27.533596      -75.890213      -21.126585
 C         -26.717421      -76.951225      -21.797970
 C         -26.771793      -74.720642      -20.576899
 C         -25.748325      -76.327080      -22.896646
 C         -25.674608      -74.142113      -21.726208
 C         -24.801289      -75.288666      -22.271688
 H         -27.355761      -77.608452      -22.474047
 H         -26.147419      -77.615776      -21.072235
 H         -27.449305      -73.946388      -20.430357
 H         -26.304688      -75.006538      -19.668736
 H         -26.228331      -75.872513      -23.784813
 H         -25.134226      -77.182610      -23.227776
 H         -25.027264      -73.352608      -21.268560
 H         -26.327139      -73.693977      -22.527018
 H         -24.077747      -75.062714      -23.075699
 H         -24.112114      -75.585991      -21.452801
