20
 generated by VMD
 C         -79.559914     -205.628357      -72.604210
 N         -80.215248     -206.596619      -72.447586
 H         -77.654724     -204.770767      -70.723305
 H         -79.159378     -204.658279      -72.666046
 C         -76.694412     -205.147552      -71.041031
 C         -75.542580     -204.270935      -71.361839
 C         -76.360115     -206.498474      -70.496552
 C         -74.693352     -204.014145      -70.010216
 C         -75.646667     -206.265869      -69.115929
 C         -74.379402     -205.484451      -69.430443
 H         -75.929245     -203.309372      -71.684166
 H         -74.901680     -204.656891      -72.193588
 H         -77.271080     -207.119247      -70.429886
 H         -75.680588     -207.028564      -71.269852
 H         -75.378098     -203.572266      -69.321342
 H         -73.725800     -203.570236      -70.119080
 H         -75.375626     -207.100403      -68.503105
 H         -76.487511     -205.697311      -68.463493
 H         -73.646530     -205.441940      -68.657867
 H         -73.894814     -206.048203      -70.271881
