20
 generated by VMD
 C         -77.319534     -203.280655      -67.666161
 N         -77.918236     -204.276260      -67.450752
 H         -75.165215     -201.237701      -67.670952
 H         -76.893570     -202.430130      -68.103027
 C         -74.731392     -200.662811      -68.514130
 C         -74.988251     -199.206406      -68.633194
 C         -73.815254     -201.455917      -69.398369
 C         -73.912117     -198.545868      -69.573273
 C         -72.856651     -200.672745      -70.273651
 C         -73.615997     -199.255844      -70.814735
 H         -75.065681     -198.764343      -67.609299
 H         -75.915512     -199.036484      -69.058716
 H         -73.277931     -202.158096      -68.730728
 H         -74.546005     -202.084061      -69.994370
 H         -72.968170     -198.333267      -68.983055
 H         -74.289650     -197.500046      -69.813469
 H         -72.531097     -201.266678      -71.083282
 H         -72.013153     -200.339401      -69.782532
 H         -72.915634     -198.699722      -71.508240
 H         -74.434517     -199.489975      -71.363617
