20
 generated by VMD
 C         -27.256016      -72.873314      -17.959856
 N         -28.024300      -73.356995      -17.235346
 H         -24.637297      -70.218353      -18.756073
 H         -26.781166      -72.129745      -18.716391
 C         -25.112474      -70.674393      -19.694225
 C         -24.519663      -72.021179      -20.218767
 C         -25.573608      -69.641975      -20.665524
 C         -25.160139      -72.557472      -21.585289
 C         -26.461117      -70.248878      -21.690636
 C         -25.931879      -71.459183      -22.469898
 H         -24.573460      -72.652390      -19.426559
 H         -23.433981      -71.859093      -20.293982
 H         -26.021666      -68.825867      -20.167725
 H         -24.640997      -69.305641      -21.111181
 H         -26.029585      -73.193695      -21.370802
 H         -24.466169      -73.135017      -22.213200
 H         -26.600878      -69.476105      -22.411402
 H         -27.264750      -70.541153      -21.050613
 H         -26.845310      -71.866966      -23.096106
 H         -25.219795      -71.238586      -23.294489
