20
 generated by VMD
 C          -9.111517      -23.838203        2.442689
 N          -8.656594      -24.831722        2.609833
 H          -8.218499      -23.420202       -1.151890
 H          -9.121687      -22.684807       -2.424337
 C          -8.123680      -22.988201       -2.146040
 C          -7.621588      -24.118208       -3.012368
 C          -7.107006      -21.865393       -2.115855
 C          -7.426722      -23.587444       -4.392458
 C          -6.924592      -21.260057       -3.546829
 C          -6.479318      -22.369005       -4.472851
 H          -8.338746      -24.968319       -2.991006
 H          -6.784097      -24.586843       -2.569864
 H          -7.607102      -21.106731       -1.463985
 H          -6.142979      -22.219158       -1.726126
 H          -8.365675      -23.234362       -4.870836
 H          -7.046454      -24.351826       -5.050675
 H          -6.157649      -20.444210       -3.522548
 H          -7.903826      -20.849422       -3.868647
 H          -6.500275      -21.998850       -5.528409
 H          -5.468529      -22.700357       -4.174160
