20
 generated by VMD
 C         -30.363806      -94.131599      -25.711466
 N         -29.956556      -93.588051      -24.788208
 H         -33.935776      -93.053856      -27.065065
 H         -30.607979      -94.644432      -26.562654
 C         -34.323265      -92.261101      -27.721048
 C         -35.776150      -92.410614      -28.008703
 C         -33.442131      -91.753769      -28.797699
 C         -36.338779      -91.268570      -28.862360
 C         -34.150822      -90.698853      -29.607445
 C         -35.512486      -91.061607      -30.137096
 H         -36.286747      -92.310455      -27.027508
 H         -35.799309      -93.458183      -28.342075
 H         -32.567104      -91.408783      -28.253527
 H         -33.120876      -92.591797      -29.353050
 H         -36.391869      -90.371925      -28.268770
 H         -37.417423      -91.489220      -29.168295
 H         -33.547516      -90.242813      -30.368153
 H         -34.245968      -89.884720      -28.858786
 H         -35.771393      -90.374496      -30.942659
 H         -35.217575      -91.935570      -30.747684
