20
 generated by VMD
 C         -10.763166      -37.354816       -8.219049
 N         -10.775615      -36.307446       -7.785944
 H         -13.398357      -37.434124       -7.758687
 H         -14.287340      -38.027042       -6.397069
 C         -13.958833      -38.263355       -7.455652
 C         -13.128426      -39.560162       -7.354531
 C         -15.123412      -38.369083       -8.455468
 C         -13.923519      -40.838528       -7.316355
 C         -15.973576      -39.640034       -8.182062
 C         -15.078117      -40.849598       -8.379022
 H         -12.475913      -39.578053       -6.499337
 H         -12.546089      -39.559189       -8.243993
 H         -15.815496      -37.488033       -8.422073
 H         -14.700034      -38.457958       -9.495532
 H         -14.375811      -40.895298       -6.320944
 H         -13.256054      -41.739395       -7.395898
 H         -16.839922      -39.617756       -8.840624
 H         -16.306252      -39.531544       -7.118722
 H         -15.670207      -41.785301       -8.327178
 H         -14.600412      -40.803818       -9.379140
