20
 generated by VMD
 C         -78.041283     -204.170380      -69.810822
 N         -79.119041     -203.698410      -69.999321
 H         -75.527031     -202.290771      -67.495689
 H         -77.019585     -204.580185      -69.902802
 C         -75.388351     -202.482224      -68.568626
 C         -75.833771     -201.406403      -69.524750
 C         -74.336319     -203.381317      -69.084610
 C         -74.943527     -201.348404      -70.744537
 C         -73.066559     -202.546173      -69.361183
 C         -73.470787     -201.331604      -70.262604
 H         -75.636902     -200.499710      -68.954056
 H         -76.908707     -201.436584      -69.706116
 H         -74.203972     -204.177155      -68.323570
 H         -74.753708     -203.796722      -70.084732
 H         -75.167900     -200.490784      -71.390572
 H         -75.156364     -202.247147      -71.418106
 H         -72.366287     -203.169571      -69.907326
 H         -72.503609     -202.262894      -68.520287
 H         -73.390114     -200.542435      -69.664558
 H         -72.679337     -201.222885      -71.020752
