20
 generated by VMD
 C         -57.985031     -150.705017      -48.919281
 N         -58.109741     -151.880280      -48.647995
 H         -55.455021     -149.683899      -47.729156
 H         -57.989895     -149.662994      -49.153400
 C         -55.233784     -149.423080      -48.757137
 C         -54.340611     -150.392014      -49.489693
 C         -55.153049     -147.966812      -48.973911
 C         -54.147488     -149.892975      -50.915291
 C         -54.939449     -147.540237      -50.385315
 C         -53.894279     -148.455917      -51.036926
 H         -54.838070     -151.335281      -49.710575
 H         -53.449493     -150.533554      -48.979820
 H         -56.078430     -147.620300      -48.560215
 H         -54.373165     -147.486710      -48.307884
 H         -54.990780     -150.124817      -51.559906
 H         -53.330486     -150.522644      -51.214172
 H         -54.415672     -146.549164      -50.247116
 H         -55.736942     -147.562943      -51.051849
 H         -53.801147     -148.195908      -52.037048
 H         -52.894901     -148.274033      -50.556786
