20
 generated by VMD
 C         -28.298676      -87.056328      -27.084137
 N         -27.606216      -87.004768      -26.156662
 H         -31.165913      -88.322990      -25.196550
 H         -28.797522      -87.097961      -28.072418
 C         -32.129059      -88.172050      -25.657724
 C         -33.282368      -88.413589      -24.887480
 C         -32.336735      -88.374184      -27.134687
 C         -34.543255      -87.710754      -25.323206
 C         -33.531067      -87.451668      -27.557814
 C         -34.791199      -87.888695      -26.840584
 H         -33.078548      -87.978836      -23.913525
 H         -33.410915      -89.517960      -24.976175
 H         -31.418287      -88.093765      -27.665783
 H         -32.477760      -89.478523      -27.244238
 H         -34.463646      -86.629997      -24.968025
 H         -35.409122      -88.047020      -24.685490
 H         -33.766651      -87.359184      -28.637352
 H         -33.242111      -86.402878      -27.300846
 H         -35.677818      -87.321533      -27.053814
 H         -35.023243      -88.937599      -26.850580
