20
 generated by VMD
 C         -22.460581      -53.014969      -12.433580
 N         -22.833630      -52.521141      -13.433377
 H         -20.358347      -54.285446      -14.550682
 H         -22.052128      -53.799740      -11.717129
 C         -19.417692      -54.122963      -13.969705
 C         -19.088848      -52.647030      -13.685718
 C         -18.439119      -55.151814      -13.554035
 C         -17.513763      -52.434891      -13.767797
 C         -17.244085      -54.617569      -12.745006
 C         -16.568377      -53.644272      -13.621773
 H         -19.450283      -52.268753      -12.714926
 H         -19.606747      -52.015152      -14.418986
 H         -19.068111      -55.875954      -13.044870
 H         -18.041842      -55.711697      -14.406690
 H         -17.236895      -51.717113      -13.000762
 H         -17.299156      -51.977333      -14.731940
 H         -16.606384      -55.429974      -12.368778
 H         -17.612041      -54.087414      -11.884342
 H         -15.610423      -53.394592      -13.090496
 H         -16.308485      -54.026104      -14.676069
