20
 generated by VMD
 C         -49.805603     -141.981461      -45.171875
 N         -49.200115     -142.916626      -45.312557
 H         -51.583431     -139.404755      -46.062756
 H         -50.519470     -141.152054      -45.109043
 C         -52.400475     -139.950409      -46.441521
 C         -52.461403     -140.094238      -47.886627
 C         -53.424316     -140.440460      -45.621944
 C         -52.893707     -141.502014      -48.231907
 C         -54.130165     -141.795959      -46.063473
 C         -54.210884     -141.824081      -47.583950
 H         -51.493141     -139.970856      -48.388401
 H         -53.004089     -139.285614      -48.353951
 H         -53.114468     -140.547562      -44.524769
 H         -54.235374     -139.603577      -45.650833
 H         -52.090054     -142.176865      -48.113174
 H         -52.977886     -141.701233      -49.260067
 H         -55.140274     -141.921738      -45.594051
 H         -53.528553     -142.687744      -45.789803
 H         -54.675049     -142.714111      -47.966911
 H         -54.949635     -141.177505      -47.977581
