20
 generated by VMD
 C         -49.208519     -140.919968      -45.461700
 N         -48.136314     -141.222763      -45.145306
 H         -51.374870     -138.534042      -46.166264
 H         -50.122166     -140.444092      -45.789864
 C         -51.982277     -139.381897      -46.280571
 C         -52.670025     -139.399918      -47.597675
 C         -52.824451     -139.864105      -45.146557
 C         -53.379307     -140.749390      -47.998940
 C         -53.486980     -141.201965      -45.444099
 C         -54.239346     -141.128433      -46.792904
 H         -51.951649     -138.983536      -48.340210
 H         -53.360374     -138.576996      -47.513268
 H         -52.257923     -139.963211      -44.182320
 H         -53.768787     -139.201843      -44.923275
 H         -52.538731     -141.487106      -48.248589
 H         -53.998138     -140.561432      -48.942673
 H         -54.255936     -141.656876      -44.728359
 H         -52.774857     -142.010101      -45.499218
 H         -54.654987     -142.116241      -46.865150
 H         -55.024544     -140.485779      -46.791927
