20
 generated by VMD
 C         -70.308121     -182.707199      -65.515343
 N         -70.906189     -183.676834      -65.590599
 H         -68.237701     -181.603943      -62.874416
 H         -69.705711     -181.822617      -65.481201
 C         -67.547844     -181.675293      -62.018391
 C         -67.586601     -182.904785      -61.183521
 C         -66.982452     -180.366867      -61.515358
 C         -66.577690     -182.851303      -60.049122
 C         -65.917755     -180.611221      -60.482258
 C         -66.324562     -181.579071      -59.411186
 H         -67.413872     -183.653610      -61.954578
 H         -68.525902     -183.106339      -60.767445
 H         -66.403610     -179.837845      -62.346325
 H         -67.815964     -179.621613      -61.107910
 H         -65.553802     -183.245163      -60.309906
 H         -66.878662     -183.586365      -59.151108
 H         -65.651436     -179.615616      -60.108284
 H         -64.977524     -181.034332      -60.938164
 H         -65.527107     -181.518616      -58.744808
 H         -67.223808     -181.194977      -58.981216
