20
 generated by VMD
 C         -69.257240     -180.322342      -60.502659
 N         -69.371544     -181.482574      -60.399395
 H         -67.322807     -177.418320      -59.557728
 H         -69.093475     -179.254654      -60.726875
 C         -66.324173     -177.297256      -59.902023
 C         -65.982986     -177.384811      -61.323589
 C         -65.218895     -177.150040      -58.880589
 C         -64.911003     -176.245941      -61.695000
 C         -64.282890     -175.950638      -59.159508
 C         -63.814510     -176.201813      -60.554626
 H         -66.801071     -177.410385      -62.009510
 H         -65.514503     -178.336105      -61.577862
 H         -65.766838     -177.068588      -57.959457
 H         -64.740036     -178.151062      -58.923771
 H         -65.412727     -175.257797      -61.847797
 H         -64.559158     -176.644897      -62.741745
 H         -63.536236     -176.066330      -58.394478
 H         -64.836426     -175.004669      -59.131420
 H         -63.199802     -175.367279      -60.870274
 H         -63.150135     -177.070786      -60.737610
