20
 generated by VMD
 C          -2.018718      -17.751795        2.135575
 N          -1.643697      -17.063061        2.935114
 H          -5.317330      -17.689041        1.013596
 H          -5.092033      -18.738525       -0.422035
 C          -5.846410      -18.077967        0.117769
 C          -6.121412      -16.971483       -0.991435
 C          -7.030664      -18.897985        0.533752
 C          -6.827858      -17.699137       -2.107702
 C          -7.810951      -19.472795       -0.632459
 C          -8.156868      -18.369938       -1.666204
 H          -5.197102      -16.499128       -1.328593
 H          -6.711393      -16.256235       -0.453137
 H          -6.737540      -19.743362        1.079992
 H          -7.744184      -18.204424        0.969226
 H          -6.185937      -18.553394       -2.499956
 H          -7.092520      -17.009230       -2.931659
 H          -8.695719      -19.950581       -0.220111
 H          -7.221147      -20.218498       -1.203460
 H          -8.681061      -18.860207       -2.507394
 H          -8.833344      -17.598003       -1.291722
