20
 generated by VMD
 C         -23.349730      -53.242100      -13.179090
 N         -23.277655      -52.647648      -14.167439
 H         -20.512094      -54.876045      -14.313553
 H         -23.574757      -54.032707      -12.208165
 C         -19.489496      -54.780315      -14.024154
 C         -18.940784      -53.365459      -14.045151
 C         -18.601604      -56.021877      -14.005284
 C         -17.833391      -53.226276      -12.979465
 C         -17.259026      -55.667488      -13.452040
 C         -16.761192      -54.246876      -13.330840
 H         -19.818687      -52.759197      -13.692676
 H         -18.483316      -53.070927      -15.019323
 H         -19.060453      -56.796162      -13.477569
 H         -18.497070      -56.354416      -15.068142
 H         -18.172073      -53.397076      -11.944420
 H         -17.396578      -52.228493      -13.012672
 H         -16.556173      -56.296024      -13.914698
 H         -17.187225      -56.034420      -12.381743
 H         -15.902049      -54.155983      -12.618931
 H         -16.372450      -53.968273      -14.331746
