20
 generated by VMD
 C         -23.689211      -69.131721      -16.605156
 N         -23.741659      -69.865738      -15.703436
 H         -23.835594      -66.519478      -19.009249
 H         -23.514786      -68.389519      -17.282005
 C         -24.469873      -67.289062      -19.520229
 C         -23.882732      -67.965240      -20.723158
 C         -25.949375      -67.250526      -19.289650
 C         -24.492367      -69.308495      -20.823408
 C         -26.516157      -68.648079      -19.284655
 C         -26.005566      -69.257996      -20.536736
 H         -22.744289      -67.981216      -20.487268
 H         -24.003851      -67.275917      -21.553747
 H         -26.234833      -66.855263      -18.285143
 H         -26.261324      -66.521980      -20.182438
 H         -23.931196      -69.883125      -20.106043
 H         -24.322372      -69.759727      -21.745649
 H         -27.559767      -68.547005      -19.356012
 H         -26.227938      -69.207123      -18.450689
 H         -26.235037      -70.336433      -20.600414
 H         -26.599522      -68.769485      -21.382584
