20
 generated by VMD
 C         -56.027699     -149.208908      -45.838936
 N         -55.759407     -150.149017      -45.191738
 H         -53.762920     -148.059479      -47.929951
 H         -56.060970     -148.381256      -46.490444
 C         -54.095585     -147.419632      -48.716961
 C         -53.116234     -147.481125      -49.880619
 C         -54.846260     -146.115158      -48.509823
 C         -53.524067     -146.816727      -51.145721
 C         -55.198906     -145.379288      -49.817829
 C         -54.159542     -145.433243      -50.921391
 H         -52.926292     -148.506226      -49.963280
 H         -52.196873     -147.045273      -49.587704
 H         -55.806667     -146.430145      -48.187534
 H         -54.292057     -145.539230      -47.838436
 H         -54.286747     -147.443130      -51.622726
 H         -52.688999     -146.775360      -51.771225
 H         -55.603104     -144.398926      -49.726131
 H         -56.139252     -145.906418      -50.177765
 H         -54.587257     -145.296844      -51.954571
 H         -53.431332     -144.616806      -50.880669
