20
 generated by VMD
 C         -77.370888     -202.926163      -69.352936
 N         -77.647331     -203.740112      -68.581703
 H         -75.017624     -201.855881      -67.114594
 H         -77.156898     -202.193848      -70.177902
 C         -74.767555     -201.381470      -68.024437
 C         -75.172585     -200.013885      -68.486900
 C         -73.889641     -202.200287      -68.900276
 C         -74.649269     -199.515594      -69.878746
 C         -73.251854     -201.555695      -70.022079
 C         -74.124763     -200.605408      -70.841042
 H         -74.952751     -199.248917      -67.711304
 H         -76.269806     -200.095200      -68.558372
 H         -73.146935     -202.618179      -68.281235
 H         -74.501945     -202.964706      -69.325920
 H         -73.808723     -198.902832      -69.745102
 H         -75.470497     -199.062500      -70.416809
 H         -72.921028     -202.416489      -70.616333
 H         -72.360390     -201.074478      -69.606567
 H         -73.494759     -199.989014      -71.545715
 H         -75.042816     -200.985947      -71.367683
