20
 generated by VMD
 C         -50.806709     -129.653366      -45.287655
 N         -50.953701     -129.639679      -44.138596
 H         -49.041939     -128.937668      -42.225647
 H         -50.776684     -129.556213      -46.385914
 C         -48.234383     -129.111145      -41.534946
 C         -47.939430     -130.541428      -41.284298
 C         -47.308926     -127.958252      -41.183159
 C         -46.445293     -130.868851      -41.348675
 C         -45.865097     -128.329407      -41.352413
 C         -45.690727     -129.736343      -40.702484
 H         -48.477936     -131.172546      -41.915279
 H         -48.228062     -130.900665      -40.207439
 H         -47.548096     -127.037994      -41.840412
 H         -47.609341     -127.793243      -40.206665
 H         -46.287567     -130.984970      -42.410671
 H         -46.207302     -131.718262      -40.639538
 H         -45.157341     -127.608246      -40.875450
 H         -45.590557     -128.312683      -42.487526
 H         -44.620003     -129.858887      -40.698921
 H         -45.876148     -129.659683      -39.617882
