20
 generated by VMD
 C          -1.635802       -8.494641        0.278798
 N          -2.421106       -7.716243        0.290583
 H          -3.440763       -9.339384        2.513156
 H          -1.982436      -10.285608        2.435829
 C          -3.064451      -10.278103        2.794719
 C          -3.901799      -11.386653        2.171732
 C          -2.977781      -10.275293        4.278768
 C          -3.504742      -12.748031        2.865553
 C          -2.594606      -11.643001        4.806162
 C          -3.495065      -12.707410        4.363034
 H          -3.768599      -11.517283        1.068280
 H          -4.961084      -11.197910        2.378647
 H          -2.244204       -9.483556        4.481977
 H          -3.775872       -9.821525        4.824660
 H          -2.468587      -12.942389        2.464700
 H          -4.183109      -13.511062        2.423249
 H          -2.456331      -11.633564        5.892488
 H          -1.589038      -11.804261        4.481254
 H          -3.245720      -13.679941        4.826210
 H          -4.462725      -12.426099        4.775966
