20
 generated by VMD
 C         -38.388496     -109.081734      -36.632721
 N         -37.271500     -108.805931      -36.422741
 H         -42.115105     -109.943443      -36.675255
 H         -39.517776     -109.153053      -36.674824
 C         -42.131512     -110.582809      -35.808178
 C         -41.635521     -112.047821      -35.914433
 C         -42.791409     -110.298866      -34.358879
 C         -40.777916     -112.485146      -34.722633
 C         -41.915070     -110.700302      -33.207428
 C         -41.324238     -112.121964      -33.352585
 H         -41.126720     -112.142494      -36.926395
 H         -42.555077     -112.610161      -35.840942
 H         -43.268303     -109.298141      -34.210762
 H         -43.727100     -110.998306      -34.355225
 H         -39.713703     -112.106667      -35.017231
 H         -40.861305     -113.532158      -34.705208
 H         -42.548290     -110.618973      -32.305637
 H         -41.040348     -110.030388      -33.047863
 H         -40.704094     -112.315086      -32.503433
 H         -42.253338     -112.810715      -33.038460
