20
 generated by VMD
 C         -70.739670     -181.810944      -64.028664
 N         -69.798256     -182.489227      -63.769024
 H         -68.712189     -180.970093      -61.274887
 H         -71.609497     -181.186050      -64.201035
 C         -67.625893     -180.734283      -61.105263
 C         -66.816666     -181.849319      -60.635345
 C         -67.332947     -179.332001      -60.689507
 C         -65.443687     -181.557541      -60.993320
 C         -65.875961     -179.065063      -60.690964
 C         -64.974350     -180.285278      -60.301960
 H         -67.089386     -182.821915      -61.204971
 H         -67.099327     -182.137222      -59.497540
 H         -67.755371     -178.646088      -61.328163
 H         -67.770737     -179.008087      -59.719273
 H         -65.431328     -181.504059      -62.083195
 H         -64.896957     -182.355682      -60.509094
 H         -65.628784     -178.264755      -59.996883
 H         -65.542145     -178.798508      -61.721104
 H         -63.890530     -180.095200      -60.355156
 H         -65.217812     -180.453293      -59.153694
