20
 generated by VMD
 C         -69.795807     -180.822159      -61.295235
 N         -69.117760     -180.503098      -62.168262
 H         -66.693039     -180.012360      -59.219940
 H         -70.297676     -181.157120      -60.399776
 C         -66.208191     -179.153595      -59.679668
 C         -65.600227     -179.256927      -61.080067
 C         -65.854218     -177.926788      -58.818161
 C         -65.168945     -177.946823      -61.747520
 C         -65.525658     -176.723984      -59.645138
 C         -64.579582     -176.983704      -60.821976
 H         -66.414536     -179.727295      -61.677727
 H         -64.793671     -180.037537      -61.207291
 H         -66.630486     -177.650162      -58.118759
 H         -64.915222     -177.998871      -58.241413
 H         -66.070656     -177.605331      -62.246826
 H         -64.508102     -178.286072      -62.598576
 H         -65.146454     -175.970352      -58.918095
 H         -66.370529     -176.305679      -60.163460
 H         -64.661385     -176.066574      -61.434875
 H         -63.575798     -177.031525      -60.552158
