20
 generated by VMD
 C         -79.181633     -206.807495      -75.340958
 N         -79.099541     -207.126999      -76.484383
 H         -78.885033     -209.566040      -72.761497
 H         -79.149147     -206.305267      -74.372787
 C         -78.089813     -210.073807      -72.246902
 C         -76.923256     -209.210785      -72.067902
 C         -78.371475     -211.055023      -71.212730
 C         -76.885216     -208.505417      -70.788017
 C         -78.301041     -210.459473      -69.789070
 C         -76.993431     -209.441177      -69.684242
 H         -76.749664     -208.526520      -72.914253
 H         -76.066299     -209.931046      -72.115166
 H         -79.359306     -211.546555      -71.269417
 H         -77.554657     -211.765472      -71.384430
 H         -77.809013     -207.963654      -70.548660
 H         -76.089348     -207.733414      -70.654999
 H         -78.262772     -211.365067      -69.065430
 H         -79.171402     -209.838898      -69.546066
 H         -77.153030     -209.024368      -68.714760
 H         -76.026932     -209.913300      -69.588669
