20
 generated by VMD
 C         -38.970135     -111.491013      -36.546349
 N         -38.347511     -110.486069      -36.601463
 H         -40.164925     -114.042496      -35.097424
 H         -39.512745     -112.410995      -36.398468
 C         -41.160431     -113.787346      -35.245068
 C         -41.619564     -113.964966      -36.680885
 C         -41.895458     -112.836571      -34.239632
 C         -43.059177     -114.058533      -36.691101
 C         -43.399796     -112.837463      -34.448685
 C         -43.894604     -113.025139      -35.931087
 H         -41.098640     -114.800720      -37.135685
 H         -41.324261     -113.019966      -37.194004
 H         -41.549324     -112.965210      -33.222980
 H         -41.318310     -111.909744      -34.442677
 H         -43.258289     -115.071999      -36.466404
 H         -43.449806     -113.902313      -37.738033
 H         -43.871590     -112.108238      -33.825844
 H         -43.925800     -113.634102      -33.971458
 H         -45.029728     -113.219055      -35.775284
 H         -43.838886     -112.008965      -36.389153
