20
 generated by VMD
 C         -60.159348     -156.528534      -55.560810
 N         -60.840130     -155.769669      -56.027599
 H         -59.837852     -157.680374      -52.728088
 H         -59.560509     -157.165054      -54.963352
 C         -58.717152     -157.924530      -52.871925
 C         -57.737015     -156.869064      -52.663086
 C         -58.316059     -159.305283      -52.262981
 C         -57.369015     -156.739807      -51.217560
 C         -58.053539     -159.153809      -50.736588
 C         -56.891506     -158.118332      -50.493725
 H         -58.101006     -155.812714      -52.990551
 H         -56.973576     -157.108490      -53.479866
 H         -58.959343     -160.178711      -52.496273
 H         -57.324589     -159.528793      -52.831989
 H         -58.237152     -156.398712      -50.691532
 H         -56.577583     -155.940506      -51.169815
 H         -57.837479     -160.224609      -50.327278
 H         -59.020760     -158.797699      -50.229847
 H         -56.879414     -157.901886      -49.463104
 H         -55.872997     -158.390533      -50.954777
