20
 generated by VMD
 C         -69.043678     -187.151627      -67.799484
 N         -67.929489     -187.430893      -67.587570
 H         -68.224426     -186.954544      -64.183670
 H         -70.093048     -186.918015      -68.160240
 C         -69.067215     -187.453781      -63.652702
 C         -68.977768     -187.919235      -62.138031
 C         -70.394997     -186.898102      -64.070938
 C         -70.222763     -188.591843      -61.683105
 C         -71.592484     -187.916382      -63.662125
 C         -71.614220     -188.203690      -62.235886
 H         -68.720207     -186.964493      -61.452518
 H         -68.057495     -188.595749      -61.944954
 H         -70.534897     -185.840942      -63.820065
 H         -70.447929     -186.731293      -65.195442
 H         -70.289406     -188.544495      -60.556442
 H         -70.227386     -189.620285      -61.977066
 H         -71.550522     -188.844666      -64.294228
 H         -72.512932     -187.387497      -64.027611
 H         -71.959755     -187.419159      -61.592888
 H         -72.260727     -188.974289      -62.024673
