20
 generated by VMD
 C         -27.476484      -84.577965      -26.271879
 N         -28.038248      -85.299385      -26.967356
 H         -31.450611      -84.487160      -25.923689
 H         -27.043343      -83.907997      -25.642782
 C         -31.936474      -85.466919      -25.840580
 C         -32.143444      -85.938202      -24.400171
 C         -32.160149      -86.583427      -26.883871
 C         -33.404259      -86.763893      -24.192532
 C         -33.325039      -87.403046      -26.540977
 C         -33.548149      -87.907455      -25.120798
 H         -32.249115      -85.122681      -23.765638
 H         -31.245573      -86.470444      -24.014460
 H         -32.389133      -86.047798      -27.812693
 H         -31.230686      -87.030037      -27.039057
 H         -34.329971      -86.151657      -24.120207
 H         -33.514236      -87.282257      -23.155018
 H         -33.463005      -88.373428      -27.174686
 H         -34.178562      -86.793739      -26.839033
 H         -34.550911      -88.336601      -25.037817
 H         -32.768803      -88.793304      -25.087034
