20
 generated by VMD
 C         -30.441483      -74.472115      -21.056749
 N         -30.791807      -75.442558      -20.539875
 H         -27.406597      -74.772812      -19.442488
 H         -30.155003      -73.479225      -21.215857
 C         -26.825228      -74.562103      -20.385040
 C         -26.409414      -75.768356      -21.167795
 C         -25.968082      -73.375366      -20.399731
 C         -25.959677      -75.437004      -22.568249
 C         -25.531746      -72.912079      -21.798599
 C         -25.122444      -74.168037      -22.612055
 H         -27.200697      -76.429260      -21.150843
 H         -25.578651      -76.113800      -20.636719
 H         -26.446577      -72.637184      -19.804039
 H         -25.054800      -73.582954      -19.843500
 H         -26.862362      -75.334427      -23.200180
 H         -25.333519      -76.213142      -23.050924
 H         -24.696304      -72.104416      -21.880291
 H         -26.317606      -72.309761      -22.287140
 H         -24.949991      -73.841339      -23.655737
 H         -24.142288      -74.509384      -22.223835
