20
 generated by VMD
 C         -12.785587      -28.590206       -5.880658
 N         -13.068781      -28.678560       -6.952703
 H         -12.140355      -31.158342       -5.032305
 H         -10.845194      -29.889172       -4.970134
 C         -11.089335      -30.914339       -4.769257
 C         -10.120914      -31.746103       -5.607023
 C         -10.841956      -31.073164       -3.249743
 C          -8.662231      -31.450489       -5.208785
 C          -9.397017      -30.693878       -2.888579
 C          -8.406717      -31.612112       -3.639478
 H         -10.304364      -31.537746       -6.715545
 H         -10.449076      -32.710846       -5.427150
 H         -11.570234      -30.549809       -2.617296
 H         -10.897140      -32.169857       -3.049811
 H          -8.499812      -30.421652       -5.477309
 H          -7.963386      -32.092686       -5.750098
 H          -9.283154      -30.804968       -1.827960
 H          -9.150368      -29.610119       -3.108456
 H          -7.385630      -31.324047       -3.426031
 H          -8.694744      -32.644260       -3.354003
