20
 generated by VMD
 C         -69.433578     -180.035492      -61.926239
 N         -69.478851     -181.119263      -62.398842
 H         -66.684486     -180.422241      -59.317974
 H         -69.421402     -179.035660      -61.595985
 C         -66.149551     -179.534729      -59.639111
 C         -65.339409     -179.799011      -60.790413
 C         -66.101929     -178.319641      -58.908653
 C         -65.430000     -178.502975      -61.779007
 C         -65.826126     -177.071640      -59.739445
 C         -64.986488     -177.227417      -60.981270
 H         -65.593109     -180.709274      -61.383347
 H         -64.276718     -180.050674      -60.486252
 H         -67.095207     -178.077026      -58.383808
 H         -65.375626     -178.529221      -58.144444
 H         -66.550011     -178.416336      -62.095604
 H         -64.639900     -178.740906      -62.558365
 H         -65.486572     -176.211746      -59.184826
 H         -66.855980     -176.788574      -60.046909
 H         -64.680550     -176.348602      -61.531811
 H         -63.953876     -177.512009      -60.697124
