20
 generated by VMD
 C         -12.978158      -28.698410       -5.873135
 N         -12.765045      -27.740318       -5.361410
 H         -11.393362      -31.223692       -3.391667
 H         -11.234104      -29.639290       -4.395366
 C         -10.722865      -30.497595       -3.890300
 C          -9.847682      -31.229979       -4.874141
 C          -9.956597      -29.851229       -2.697136
 C          -8.664445      -30.299858       -5.364101
 C          -8.741067      -29.035078       -3.140533
 C          -7.844876      -29.793804       -4.132496
 H         -10.575156      -31.481314       -5.718011
 H          -9.342539      -32.096779       -4.517196
 H         -10.616553      -29.116261       -2.212946
 H          -9.714094      -30.610329       -1.902369
 H          -9.129683      -29.437412       -5.863378
 H          -8.009097      -30.864595       -6.072462
 H          -8.159157      -28.839561       -2.193392
 H          -9.108368      -28.131422       -3.569357
 H          -7.035058      -29.214552       -4.488997
 H          -7.293764      -30.602663       -3.577086
