20
 generated by VMD
 C         -48.120884     -133.786011      -47.555550
 N         -48.113487     -133.309097      -48.551620
 H         -49.305443     -134.250671      -44.139053
 H         -48.044315     -134.260605      -46.606281
 C         -49.962997     -134.954895      -43.694752
 C         -50.133347     -136.201355      -44.457497
 C         -51.021820     -134.664383      -42.614380
 C         -50.508987     -137.409103      -43.639370
 C         -51.322964     -135.922806      -41.803860
 C         -51.678051     -137.104736      -42.637466
 H         -49.213058     -136.353836      -45.144772
 H         -50.933022     -135.894958      -45.082130
 H         -50.672268     -133.798950      -41.998650
 H         -51.936226     -134.392639      -43.073971
 H         -49.604504     -137.718216      -43.128525
 H         -50.751778     -138.299255      -44.282513
 H         -52.207664     -135.897415      -41.085564
 H         -50.478878     -136.270081      -41.134499
 H         -51.827881     -138.029358      -42.032639
 H         -52.535648     -136.751022      -43.303387
