20
 generated by VMD
 C         -21.249403      -56.246887      -17.256966
 N         -20.873281      -55.359188      -17.849831
 H         -23.153242      -58.582718      -15.822669
 H         -21.367954      -57.344536      -17.042290
 C         -22.420305      -59.248158      -15.370229
 C         -21.920879      -58.948048      -13.953441
 C         -21.691212      -60.150200      -16.217161
 C         -20.990149      -60.015598      -13.352669
 C         -20.406519      -60.836075      -15.701108
 C         -20.513847      -61.263618      -14.257152
 H         -22.765635      -58.579796      -13.390889
 H         -21.274607      -58.015877      -13.947213
 H         -22.434704      -60.866581      -16.637068
 H         -21.502619      -59.563774      -17.149494
 H         -21.412859      -60.363075      -12.438803
 H         -20.042627      -59.558670      -13.068907
 H         -19.505711      -60.120380      -15.762694
 H         -20.063038      -61.567879      -16.464012
 H         -21.283422      -62.049095      -14.236584
 H         -19.484640      -61.601570      -13.898120
