20
 generated by VMD
 C         -38.539898     -108.070129      -36.805855
 N         -38.071987     -108.748444      -37.618740
 H         -41.252823     -109.017685      -35.735249
 H         -38.752251     -107.396202      -36.013042
 C         -41.310520     -109.768616      -35.016945
 C         -40.544479     -110.955048      -35.233109
 C         -42.388756     -109.854561      -34.099514
 C         -40.186100     -111.875214      -34.044373
 C         -42.184513     -110.675682      -32.847679
 C         -41.517624     -112.047409      -33.190113
 H         -39.628567     -110.884628      -35.751923
 H         -41.127575     -111.663582      -35.830379
 H         -42.798382     -108.871201      -33.823040
 H         -43.302036     -110.304695      -34.585243
 H         -39.375248     -111.550049      -33.469013
 H         -39.778423     -112.733643      -34.572937
 H         -43.140202     -110.985352      -32.349503
 H         -41.599266     -109.959633      -32.109299
 H         -41.280708     -112.592918      -32.246784
 H         -42.253326     -112.487244      -33.760437
