20
 generated by VMD
 C         -23.505264      -53.216644      -13.942798
 N         -24.088501      -53.093529      -14.940851
 H         -20.493383      -55.290230      -14.839922
 H         -22.773537      -53.014248      -13.034863
 C         -19.555061      -55.304646      -14.507230
 C         -19.037300      -54.028534      -13.915793
 C         -18.563797      -56.516319      -14.604935
 C         -18.313019      -54.435997      -12.653954
 C         -17.388538      -56.584190      -13.660921
 C         -17.080389      -55.256874      -12.995318
 H         -19.896839      -53.437428      -13.695134
 H         -18.436304      -53.486153      -14.591947
 H         -19.104750      -57.447491      -14.428663
 H         -18.225594      -56.559090      -15.604000
 H         -18.926735      -55.045448      -11.961742
 H         -18.042995      -53.539532      -12.048016
 H         -16.471004      -57.050938      -14.151846
 H         -17.676876      -57.237705      -12.850679
 H         -16.339281      -55.302933      -12.207270
 H         -16.472887      -54.651039      -13.716093
