20
 generated by VMD
 C         -32.244228      -94.867706      -25.478695
 N         -33.326466      -94.993950      -25.100826
 H         -33.964493      -94.875877      -28.236214
 H         -31.280979      -94.911301      -25.805351
 C         -34.276772      -94.010155      -28.719212
 C         -35.733547      -93.566933      -28.692991
 C         -33.384712      -93.478668      -29.816025
 C         -35.966045      -92.108475      -28.996283
 C         -33.579613      -92.014847      -30.195030
 C         -35.083836      -91.772850      -30.242435
 H         -35.926563      -94.002007      -27.739502
 H         -36.343124      -94.177498      -29.431789
 H         -32.315655      -93.567833      -29.579910
 H         -33.563919      -94.102333      -30.698898
 H         -35.727131      -91.405823      -28.157974
 H         -37.098576      -92.078445      -29.057175
 H         -33.200520      -91.744911      -31.158026
 H         -33.246727      -91.448692      -29.268164
 H         -35.326912      -90.713554      -30.543539
 H         -35.344215      -92.200439      -31.194574
