20
 generated by VMD
 C         -38.001766     -107.969635      -37.056469
 N         -38.564251     -108.116051      -38.058907
 H         -40.908726     -108.735397      -35.335392
 H         -37.378956     -107.789207      -36.195908
 C         -41.223339     -109.605042      -34.648113
 C         -40.219345     -110.625038      -34.973202
 C         -42.416550     -109.720421      -33.907108
 C         -40.050182     -111.443253      -33.658752
 C         -42.213718     -110.615852      -32.753613
 C         -41.394146     -111.894005      -33.070286
 H         -39.274708     -110.197105      -35.168118
 H         -40.416271     -111.334572      -35.722885
 H         -42.697460     -108.696274      -33.549263
 H         -43.226818     -110.213020      -34.488041
 H         -39.511707     -110.702766      -33.037796
 H         -39.372150     -112.253822      -33.924053
 H         -43.153229     -110.757782      -32.341366
 H         -41.618141     -110.067383      -31.979874
 H         -41.252304     -112.537956      -32.110016
 H         -41.913483     -112.640465      -33.767609
