20
 generated by VMD
 C         -29.437731      -89.371925      -25.990015
 N         -29.538198      -88.675728      -25.104916
 H         -31.822769      -90.893547      -27.787886
 H         -29.410933      -89.928001      -26.952848
 C         -32.462112      -90.031815      -27.420435
 C         -33.276363      -90.215698      -26.174471
 C         -32.922791      -89.275078      -28.567225
 C         -34.176865      -88.961044      -25.966930
 C         -33.941017      -88.122452      -28.260389
 C         -34.979481      -88.552223      -27.183458
 H         -32.592487      -90.362099      -25.303463
 H         -34.076458      -91.016434      -26.351715
 H         -32.282501      -88.803802      -29.270449
 H         -33.481758      -89.934952      -29.185328
 H         -33.644135      -88.066010      -25.675085
 H         -34.789230      -88.998482      -25.133909
 H         -34.315678      -87.847618      -29.287989
 H         -33.409370      -87.229500      -27.936192
 H         -35.747974      -87.670563      -27.110462
 H         -35.373936      -89.447624      -27.710938
