20
 generated by VMD
 C         -69.083641     -180.309143      -59.424160
 N         -68.529015     -180.764252      -60.358044
 H         -67.273964     -177.488754      -59.677578
 H         -69.499825     -179.755020      -58.588341
 C         -66.421127     -176.720779      -59.878319
 C         -66.009911     -176.551910      -61.370182
 C         -65.285034     -177.059174      -58.928787
 C         -64.830147     -175.597214      -61.547901
 C         -64.198898     -176.038803      -59.174751
 C         -63.704105     -175.972107      -60.644333
 H         -66.921455     -176.155304      -61.831631
 H         -65.856911     -177.561829      -61.912819
 H         -65.461388     -177.188889      -57.903835
 H         -64.807159     -178.010239      -59.260380
 H         -65.168526     -174.616959      -61.422234
 H         -64.531914     -175.605576      -62.591843
 H         -63.256596     -176.171356      -58.639282
 H         -64.567062     -175.011902      -59.004086
 H         -62.738773     -175.488312      -60.597111
 H         -63.376102     -177.047073      -60.878704
