20
 generated by VMD
 C         -49.609531     -133.135468      -47.108955
 N         -49.410572     -131.941910      -47.012196
 H         -47.729282     -134.314194      -43.823624
 H         -49.754044     -134.157013      -47.420357
 C         -48.684727     -134.699860      -43.616016
 C         -49.241150     -136.016357      -44.026516
 C         -49.683655     -133.710098      -43.163010
 C         -50.008083     -136.620789      -42.852909
 C         -50.440292     -134.232559      -41.960388
 C         -51.057426     -135.619385      -42.325279
 H         -48.481937     -136.688858      -44.507252
 H         -49.984970     -135.837463      -44.825855
 H         -49.012566     -132.855469      -42.919979
 H         -50.394852     -133.373138      -44.013748
 H         -49.280163     -136.950241      -42.115974
 H         -50.411549     -137.527542      -43.215843
 H         -51.247177     -133.652725      -41.619480
 H         -49.753708     -134.263168      -41.152000
 H         -51.475376     -136.128738      -41.442955
 H         -51.627541     -135.490891      -43.180073
