20
 generated by VMD
 C         -40.205711     -104.922729      -36.884144
 N         -39.548977     -103.988388      -37.091484
 H         -40.310410     -108.237541      -35.017006
 H         -40.786415     -105.693886      -36.438927
 C         -39.649578     -108.767860      -34.305073
 C         -38.634132     -107.859604      -33.692192
 C         -40.265404     -109.826363      -33.553734
 C         -38.888874     -107.571861      -32.127220
 C         -40.515102     -109.544624      -32.080379
 C         -39.383854     -108.765503      -31.395021
 H         -38.336819     -106.980553      -34.367577
 H         -37.701210     -108.578964      -33.739925
 H         -41.135357     -110.090492      -34.140038
 H         -39.550579     -110.714417      -33.562702
 H         -39.610538     -106.723915      -32.042149
 H         -37.937077     -107.270332      -31.718649
 H         -40.622147     -110.480927      -31.514160
 H         -41.506832     -109.022545      -31.973078
 H         -39.541893     -108.550621      -30.392546
 H         -38.428001     -109.500107      -31.475080
