20
 generated by VMD
 C         -30.424314      -75.864960      -22.941086
 N         -30.914589      -75.326515      -23.888245
 H         -28.894196      -78.880875      -21.563343
 H         -29.893211      -76.375923      -22.179548
 C         -28.119234      -78.158127      -21.618786
 C         -27.327934      -78.217590      -22.904348
 C         -27.585529      -77.406624      -20.336699
 C         -26.708996      -76.847542      -23.168036
 C         -26.899582      -76.137695      -20.744785
 C         -25.904772      -76.310379      -21.965614
 H         -27.790415      -78.562454      -23.751480
 H         -26.548283      -78.897308      -22.651911
 H         -28.350334      -77.119873      -19.726543
 H         -26.835844      -77.994682      -19.782749
 H         -27.484808      -76.061478      -23.357964
 H         -26.240164      -76.984413      -24.143873
 H         -26.317802      -75.689621      -19.887882
 H         -27.550652      -75.297981      -21.070065
 H         -25.347536      -75.394745      -22.175947
 H         -25.318483      -77.208168      -21.619995
