20
 generated by VMD
 C         -58.648407     -152.074173      -49.082607
 N         -59.462410     -152.169662      -49.830627
 H         -55.945572     -150.233154      -47.847500
 H         -57.765938     -152.072479      -48.434544
 C         -55.480953     -149.938416      -48.833401
 C         -54.523201     -150.917358      -49.516453
 C         -55.174065     -148.530472      -49.120705
 C         -54.231037     -150.610214      -51.114239
 C         -54.709763     -148.173599      -50.537292
 C         -53.629620     -149.097137      -51.108459
 H         -54.985298     -151.882080      -49.555859
 H         -53.432816     -150.863480      -49.045040
 H         -55.927628     -147.907501      -48.667908
 H         -54.426666     -148.377029      -48.406445
 H         -55.174782     -150.675232      -51.688774
 H         -53.509686     -151.295624      -51.567249
 H         -54.577919     -147.133514      -50.565987
 H         -55.540882     -148.109085      -51.376610
 H         -53.345364     -148.711594      -52.138729
 H         -52.735458     -149.033966      -50.589825
