20
 generated by VMD
 C         -74.279411     -200.256271      -66.379173
 N         -73.319740     -200.934540      -66.334892
 H         -76.491074     -198.158844      -68.826248
 H         -75.207443     -199.712555      -66.379791
 C         -75.410416     -198.139328      -68.673447
 C         -74.812515     -197.329376      -67.528320
 C         -74.499878     -198.982117      -69.410339
 C         -73.689041     -196.586380      -68.211922
 C         -73.158203     -198.401901      -69.824692
 C         -72.574989     -197.475418      -68.764481
 H         -74.543121     -197.837112      -66.692284
 H         -75.621979     -196.619476      -67.128937
 H         -74.369591     -199.993164      -68.954079
 H         -75.151489     -199.226120      -70.350380
 H         -73.269623     -196.028214      -67.355606
 H         -73.952911     -195.797974      -68.978790
 H         -73.287895     -197.694870      -70.663010
 H         -72.494316     -199.172424      -70.176292
 H         -72.098198     -198.002625      -67.917801
 H         -71.830795     -196.858200      -69.197487
