20
 generated by VMD
 C         -13.694694      -42.967129       -6.046278
 N         -12.879130      -43.053551       -6.780058
 H         -14.677390      -44.918247       -8.767656
 H         -14.344519      -43.438507       -9.699785
 C         -15.096282      -44.267864       -9.585710
 C         -16.450039      -43.609173       -9.348208
 C         -15.218821      -45.030132      -10.855544
 C         -16.926359      -42.682301      -10.472798
 C         -15.832811      -44.205059      -12.054545
 C         -17.138239      -43.436028      -11.747280
 H         -16.334351      -42.917843       -8.530458
 H         -17.206381      -44.391819       -9.096246
 H         -14.231013      -45.430775      -11.132590
 H         -15.863495      -45.966686      -10.761152
 H         -16.182257      -41.921288      -10.643840
 H         -17.841663      -42.191658      -10.162244
 H         -15.919621      -44.860085      -12.905061
 H         -15.158642      -43.352974      -12.360803
 H         -17.404640      -42.792934      -12.592524
 H         -17.984583      -44.139538      -11.571984
