20
 generated by VMD
 C         -79.557991     -205.718140      -72.792183
 N         -80.269051     -206.554626      -72.513206
 H         -77.656662     -204.672791      -70.740837
 H         -78.724579     -205.092682      -73.033073
 C         -76.713882     -205.163162      -70.968933
 C         -75.582603     -204.307907      -71.328377
 C         -76.478836     -206.542145      -70.383804
 C         -74.763268     -204.147720      -70.016777
 C         -75.559128     -206.345551      -69.163712
 C         -74.353851     -205.475082      -69.505249
 H         -75.835236     -203.331711      -71.703430
 H         -74.913460     -204.777069      -72.079773
 H         -77.458038     -206.957397      -70.071442
 H         -76.152725     -207.160309      -71.261658
 H         -75.258469     -203.726868      -69.186272
 H         -73.807762     -203.737274      -70.229980
 H         -75.229942     -207.290863      -68.756195
 H         -76.178802     -205.900101      -68.214638
 H         -73.765182     -205.157394      -68.680618
 H         -73.673592     -206.087799      -70.137779
