20
 generated by VMD
 C         -79.228661     -207.031509      -75.330925
 N         -78.871826     -207.116455      -76.409561
 H         -78.530289     -210.362778      -73.315529
 H         -79.508934     -206.699570      -74.396935
 C         -78.181740     -210.096741      -72.266212
 C         -77.087990     -209.185303      -72.173416
 C         -78.412292     -211.104218      -71.167763
 C         -76.918701     -208.634689      -70.834473
 C         -78.348473     -210.427399      -69.836380
 C         -77.028267     -209.660858      -69.731400
 H         -77.264053     -208.372131      -72.904800
 H         -76.147781     -209.663300      -72.505516
 H         -79.280716     -211.612167      -71.481789
 H         -77.649925     -211.882538      -71.070267
 H         -77.819099     -208.039429      -70.753624
 H         -76.047897     -208.006851      -70.844215
 H         -78.314804     -211.091446      -68.918236
 H         -79.236877     -209.816895      -69.832634
 H         -77.094780     -208.975769      -68.895645
 H         -76.195610     -210.393555      -69.676956
