20
 generated by VMD
 C         -19.444584      -60.450005      -17.881662
 N         -19.882410      -59.352554      -17.910236
 H         -22.985519      -59.879513      -16.179485
 H         -19.282707      -61.574657      -17.832979
 C         -23.112186      -60.977085      -16.017918
 C         -23.358047      -61.592213      -17.297232
 C         -23.388098      -61.607113      -14.746785
 C         -22.760578      -62.945812      -17.352045
 C         -23.125633      -63.138214      -14.786287
 C         -23.008619      -63.819344      -16.165548
 H         -22.972345      -60.969234      -18.115726
 H         -24.419073      -61.516426      -17.641726
 H         -22.624430      -61.135029      -14.151708
 H         -24.230047      -61.386513      -14.176007
 H         -21.683353      -62.758171      -17.343264
 H         -23.019604      -63.410118      -18.293825
 H         -23.845732      -63.722282      -14.195309
 H         -22.170553      -63.205688      -14.267749
 H         -22.285700      -64.706421      -16.065409
 H         -23.971386      -64.329453      -16.412188
