20
 generated by VMD
 C         -50.548294     -145.048965      -45.148499
 N         -50.522514     -145.605957      -44.085541
 H         -53.048084     -143.552216      -46.026447
 H         -50.354912     -144.570023      -46.076336
 C         -53.492264     -143.349594      -47.024395
 C         -52.588402     -143.280609      -48.119194
 C         -54.714748     -142.447388      -46.998005
 C         -53.331623     -143.404755      -49.414501
 C         -55.481926     -142.494553      -48.381081
 C         -54.506428     -142.349152      -49.558441
 H         -51.834541     -144.128342      -48.066536
 H         -52.153637     -142.286011      -48.147144
 H         -55.313847     -142.771683      -46.198986
 H         -54.476429     -141.506363      -46.716824
 H         -53.792877     -144.423859      -49.572079
 H         -52.773479     -143.303482      -50.351402
 H         -56.289616     -141.687714      -48.390160
 H         -55.920246     -143.430817      -48.654099
 H         -55.014645     -142.521210      -50.494473
 H         -53.913246     -141.477036      -49.542637
