20
 generated by VMD
 C         -69.798508     -184.847672      -66.586288
 N         -69.002151     -184.545563      -67.369263
 H         -69.768021     -183.111313      -63.120331
 H         -70.518814     -185.244415      -65.805008
 C         -69.173508     -183.502136      -62.279312
 C         -69.508133     -184.469528      -61.235676
 C         -68.093658     -182.445679      -61.918896
 C         -68.272453     -185.204178      -60.812450
 C         -66.861488     -182.969315      -61.276741
 C         -67.286232     -184.102844      -60.285179
 H         -70.280968     -185.027191      -61.743404
 H         -69.991142     -184.014618      -60.317066
 H         -67.902115     -181.859497      -62.851952
 H         -68.516792     -181.713638      -61.261749
 H         -67.696632     -185.595749      -61.724152
 H         -68.529404     -186.128342      -60.207558
 H         -66.218674     -182.130157      -60.954514
 H         -66.160011     -183.505127      -61.872013
 H         -66.398918     -184.671494      -60.117558
 H         -67.623001     -183.637680      -59.289776
