20
 generated by VMD
 C         -59.380642     -158.249359      -56.579105
 N         -58.681038     -158.572693      -57.388790
 H         -60.509785     -158.122299      -53.455616
 H         -60.079128     -157.911469      -55.859352
 C         -59.991741     -158.957565      -53.018715
 C         -58.494293     -158.793762      -52.539471
 C         -60.629471     -160.380630      -53.242031
 C         -58.197437     -159.939026      -51.532639
 C         -60.267185     -161.272125      -52.080067
 C         -58.751415     -161.360275      -51.911507
 H         -58.487740     -157.823624      -51.959042
 H         -57.940666     -158.877319      -53.462273
 H         -61.789268     -160.502396      -53.315655
 H         -60.218143     -160.749222      -54.186638
 H         -58.766918     -159.736038      -50.661354
 H         -57.137222     -159.994034      -51.160740
 H         -60.696316     -162.279572      -52.366325
 H         -60.808971     -160.931076      -51.134907
 H         -58.495388     -162.054504      -51.160728
 H         -58.243156     -161.802078      -52.773472
