20
 generated by VMD
 C         -32.248318      -93.800400      -25.328611
 N         -33.137016      -94.529671      -25.496925
 H         -33.872623      -95.082458      -28.541498
 H         -31.417315      -93.234657      -25.060722
 C         -34.265003      -94.170258      -29.012609
 C         -35.594551      -93.614235      -28.629189
 C         -33.668312      -93.471703      -30.115353
 C         -35.529846      -92.092072      -28.391260
 C         -33.517216      -91.879692      -30.014513
 C         -34.945232      -91.400620      -29.618444
 H         -36.030205      -94.165215      -27.708920
 H         -36.250683      -93.878395      -29.499649
 H         -32.609467      -93.766556      -30.174515
 H         -34.034019      -93.773682      -31.099648
 H         -34.940022      -91.936546      -27.476124
 H         -36.503830      -91.536911      -28.127163
 H         -33.258873      -91.497734      -31.029758
 H         -32.756168      -91.562454      -29.289108
 H         -34.788666      -90.321228      -29.416258
 H         -35.636806      -91.481804      -30.400143
