20
 generated by VMD
 C         -68.378387     -192.859161      -66.205894
 N         -68.467339     -193.204926      -67.331261
 H         -70.177155     -189.609879      -65.424385
 H         -67.990593     -192.659805      -65.194191
 C         -70.988647     -190.256226      -65.231506
 C         -71.544189     -190.903381      -66.443718
 C         -71.544479     -190.442673      -63.895584
 C         -72.620941     -192.005920      -66.025146
 C         -73.087776     -190.487900      -63.989342
 C         -73.604050     -191.577530      -64.963379
 H         -70.681267     -191.391800      -66.998215
 H         -72.037743     -190.140945      -66.966667
 H         -71.254585     -191.490372      -63.546417
 H         -71.273117     -189.606110      -63.332043
 H         -72.022911     -192.942505      -65.799858
 H         -73.164375     -192.473251      -66.867683
 H         -73.500809     -189.547836      -64.224854
 H         -73.560303     -190.842209      -63.040623
 H         -73.885658     -192.435593      -64.383247
 H         -74.491203     -191.325211      -65.679565
