20
 generated by VMD
 C         -78.650620     -209.874283      -76.687935
 N         -77.682289     -210.152054      -77.227913
 H         -79.629257     -211.465485      -74.363815
 H         -79.560638     -209.492905      -76.138893
 C         -79.581398     -212.132477      -73.468300
 C         -78.288910     -212.376068      -72.737030
 C         -80.598892     -213.131073      -73.133095
 C         -78.342819     -212.801315      -71.193146
 C         -80.708015     -213.330170      -71.598618
 C         -79.366776     -213.861710      -70.958946
 H         -77.663666     -211.448975      -72.884216
 H         -77.709435     -213.150970      -73.332756
 H         -81.543022     -212.836182      -73.554878
 H         -80.151382     -214.115677      -73.573929
 H         -78.462585     -211.847946      -70.647141
 H         -77.446251     -213.248444      -70.836861
 H         -81.504013     -214.023880      -71.307945
 H         -80.876686     -212.380188      -71.169098
 H         -79.531990     -213.965500      -69.839539
 H         -78.923531     -214.759964      -71.421730
