20
 generated by VMD
 C         -63.468056     -174.698135      -56.067337
 N         -62.323353     -174.680710      -56.146893
 H         -65.973289     -173.044739      -58.051575
 H         -64.532639     -174.676682      -55.902088
 C         -65.187508     -172.390686      -58.351219
 C         -65.469856     -170.993378      -57.948212
 C         -64.579460     -172.761047      -59.618084
 C         -64.178581     -170.298828      -58.105865
 C         -63.411858     -171.866226      -59.966084
 C         -63.588100     -170.380585      -59.474976
 H         -65.801666     -170.875122      -56.997730
 H         -66.297150     -170.605103      -58.736755
 H         -64.311737     -173.826538      -59.662827
 H         -65.356194     -172.707169      -60.371441
 H         -63.448132     -170.715530      -57.254257
 H         -64.365761     -169.189606      -57.851151
 H         -63.292034     -171.863510      -61.089607
 H         -62.429615     -172.321411      -59.687904
 H         -62.653015     -169.843475      -59.607155
 H         -64.337662     -169.883072      -60.205898
