20
 generated by VMD
 C         -68.664558     -185.420364      -66.976700
 N         -67.663979     -185.004364      -66.553551
 H         -69.412666     -187.882156      -64.940323
 H         -69.538803     -185.832306      -67.376663
 C         -69.587959     -187.377487      -63.968395
 C         -69.822220     -185.879303      -63.745548
 C         -69.847519     -188.385864      -62.882011
 C         -69.670975     -185.472168      -62.299015
 C         -69.777992     -187.872223      -61.481964
 C         -70.248680     -186.441238      -61.329353
 H         -70.857727     -185.756744      -64.059708
 H         -69.144485     -185.290207      -64.407280
 H         -70.832825     -188.836319      -63.067013
 H         -69.050545     -189.174210      -62.791672
 H         -70.256279     -184.581390      -62.171719
 H         -68.549248     -185.260391      -62.105816
 H         -68.806686     -187.893494      -61.089996
 H         -70.260361     -188.523499      -60.799789
 H         -71.397247     -186.447540      -61.314110
 H         -69.926773     -186.182205      -60.239059
