20
 generated by VMD
 C         -17.979904      -48.529140       -7.179025
 N         -17.659830      -47.956081       -6.264192
 H         -16.480608      -48.344570      -10.350901
 H         -15.813896      -48.986736      -11.910840
 C         -16.286612      -48.173023      -11.392614
 C         -15.459819      -46.876789      -11.441332
 C         -17.679043      -47.905338      -11.982529
 C         -15.332107      -46.264679      -12.863857
 C         -17.631701      -47.257896      -13.379075
 C         -16.698671      -45.977512      -13.460066
 H         -14.435557      -47.080280      -11.057768
 H         -15.969666      -46.027023      -10.927921
 H         -18.234272      -48.874897      -12.014389
 H         -18.309221      -47.239037      -11.327276
 H         -14.763076      -46.963787      -13.491037
 H         -14.715833      -45.370968      -12.811423
 H         -18.700838      -46.976460      -13.583741
 H         -17.369812      -47.894939      -14.153367
 H         -16.626589      -45.571316      -14.443618
 H         -17.164644      -45.150333      -12.931663
