20
 generated by VMD
 C         -76.349884     -202.963440      -66.520210
 N         -77.138817     -203.367035      -65.781296
 H         -75.667969     -200.366592      -68.686966
 H         -75.835342     -202.653915      -67.390953
 C         -74.792152     -199.751617      -68.989403
 C         -74.787231     -198.393723      -68.524193
 C         -73.739014     -200.277130      -69.912125
 C         -73.461617     -197.700821      -68.686127
 C         -73.152298     -199.177200      -70.839378
 C         -72.798126     -197.949860      -70.080254
 H         -75.109848     -198.388077      -67.410118
 H         -75.577728     -197.837021      -69.098503
 H         -72.945404     -200.760651      -69.235855
 H         -74.068024     -200.972778      -70.668205
 H         -72.750160     -197.824799      -67.864075
 H         -73.575508     -196.585388      -68.513443
 H         -73.863411     -198.995316      -71.617134
 H         -72.227585     -199.590073      -71.234558
 H         -71.634796     -197.960587      -69.983292
 H         -72.946732     -197.070755      -70.614883
