20
 generated by VMD
 C         -67.100258     -191.526810      -66.233521
 N         -67.353073     -190.891403      -67.154182
 H         -70.342384     -190.200684      -66.374329
 H         -66.826340     -191.901505      -65.214661
 C         -71.107910     -190.170776      -65.634384
 C         -72.089516     -191.277771      -65.512207
 C         -70.966476     -189.101822      -64.578407
 C         -73.318024     -190.713776      -64.863274
 C         -72.071609     -189.117874      -63.492226
 C         -72.978966     -190.302612      -63.455177
 H         -71.506050     -192.160614      -64.982620
 H         -72.267548     -191.677246      -66.499664
 H         -69.901672     -189.296310      -64.140060
 H         -70.780197     -188.102005      -65.040115
 H         -74.134125     -191.460129      -64.795708
 H         -73.638252     -189.839859      -65.412483
 H         -72.610382     -188.215149      -63.768341
 H         -71.491928     -189.014694      -62.536057
 H         -72.561852     -191.044342      -62.718647
 H         -73.951996     -190.093781      -63.089935
