20
 generated by VMD
 C         -38.613068     -115.446426      -35.475338
 N         -39.298836     -115.317436      -34.523006
 H         -41.361679     -115.366951      -36.927994
 H         -37.812439     -115.390305      -36.125343
 C         -42.354851     -115.562149      -37.158722
 C         -42.882805     -115.508400      -38.550949
 C         -43.425499     -115.338112      -36.110115
 C         -44.310776     -116.043915      -38.867863
 C         -44.723141     -116.148117      -36.367939
 C         -45.341656     -115.880798      -37.727943
 H         -42.228245     -116.110954      -39.111797
 H         -42.696224     -114.544098      -39.003910
 H         -42.956921     -115.604362      -35.209000
 H         -43.699917     -114.305603      -35.900188
 H         -44.271904     -117.141838      -39.050724
 H         -44.529652     -115.605766      -39.856445
 H         -45.464977     -115.921562      -35.650524
 H         -44.502274     -117.183357      -36.234608
 H         -46.167500     -116.636078      -38.041008
 H         -45.571625     -114.901665      -37.819321
