20
 generated by VMD
 C         -70.329979     -181.200851      -62.541771
 N         -70.761856     -180.146027      -62.851349
 H         -66.828171     -181.692261      -61.015064
 H         -69.911324     -182.169693      -62.394958
 C         -66.277084     -180.795425      -60.656296
 C         -64.889778     -180.680450      -60.277767
 C         -67.133720     -179.709961      -60.270245
 C         -64.210922     -179.356201      -60.772942
 C         -66.637070     -178.514801      -61.026855
 C         -65.197014     -178.191437      -60.513885
 H         -64.391853     -181.677612      -60.447422
 H         -64.721909     -180.660187      -59.146542
 H         -68.187645     -179.887360      -60.515869
 H         -67.032623     -179.665161      -59.194798
 H         -63.964966     -179.393738      -61.789745
 H         -63.400482     -179.314804      -60.135014
 H         -67.282845     -177.614624      -60.806446
 H         -66.542145     -178.510559      -62.148441
 H         -64.959450     -177.258957      -61.079563
 H         -65.159378     -177.931046      -59.458588
