20
 generated by VMD
 C          -3.592868      -19.249887        2.610716
 N          -3.386221      -18.296543        3.149664
 H          -5.513533      -20.417923        0.224944
 H          -6.343151      -21.255440       -1.133397
 C          -6.206645      -20.283031       -0.649690
 C          -5.575588      -19.281271       -1.638666
 C          -7.568766      -19.875660       -0.219946
 C          -6.559609      -19.053347       -2.818966
 C          -8.460238      -19.487280       -1.363779
 C          -7.878460      -18.430899       -2.253542
 H          -4.682983      -19.678919       -2.060059
 H          -5.340683      -18.341967       -1.016483
 H          -8.079790      -20.755587        0.306750
 H          -7.525361      -18.969473        0.426536
 H          -6.828916      -19.956696       -3.379019
 H          -6.094684      -18.292393       -3.506707
 H          -9.415458      -19.177731       -0.941704
 H          -8.668937      -20.366585       -2.021873
 H          -8.549498      -18.268116       -3.120898
 H          -7.642511      -17.494987       -1.716319
