20
 generated by VMD
 C         -30.019615      -80.192146      -26.453331
 N         -29.644186      -79.154526      -26.088804
 H         -28.358017      -82.835472      -25.552465
 H         -30.442547      -81.068298      -26.828808
 C         -29.189150      -82.838280      -24.764048
 C         -28.935776      -81.885559      -23.499788
 C         -30.070351      -84.145714      -24.604780
 C         -30.171156      -81.812408      -22.640465
 C         -31.135466      -83.940758      -23.547047
 C         -30.684967      -83.212227      -22.350914
 H         -28.603689      -80.926804      -23.794210
 H         -28.062344      -82.398155      -23.066475
 H         -30.668697      -84.511276      -25.465784
 H         -29.392336      -84.996658      -24.452562
 H         -31.076666      -81.150398      -23.041901
 H         -29.928297      -81.313545      -21.742077
 H         -31.652689      -84.891785      -23.200867
 H         -31.936930      -83.374039      -24.155167
 H         -31.387848      -83.042427      -21.606720
 H         -29.890713      -83.779739      -21.804914
