20
 generated by VMD
 C         -29.881479      -74.000702      -20.561934
 N         -29.949909      -75.114418      -20.294769
 H         -26.680662      -74.582695      -19.036503
 H         -29.554268      -73.019722      -20.950495
 C         -26.525469      -74.273628      -20.087963
 C         -26.024975      -75.374840      -20.973837
 C         -26.017824      -72.824493      -20.368858
 C         -26.084898      -75.123276      -22.421055
 C         -26.032421      -72.473953      -21.907566
 C         -25.287228      -73.710480      -22.589075
 H         -26.582960      -76.193359      -20.765383
 H         -24.978498      -75.446907      -20.698753
 H         -26.605164      -72.038124      -19.968191
 H         -25.043928      -72.751228      -20.045492
 H         -27.024168      -75.011635      -23.013144
 H         -25.532549      -75.989609      -22.824547
 H         -25.523142      -71.624069      -22.182825
 H         -26.999617      -72.339134      -22.431906
 H         -25.188177      -73.599442      -23.702713
 H         -24.207289      -73.743530      -22.302837
