20
 generated by VMD
 C         -47.947060     -134.195236      -47.603062
 N         -48.056385     -133.424149      -48.526783
 H         -49.654812     -134.258545      -44.198608
 H         -47.525612     -134.596771      -46.620720
 C         -50.217793     -134.997375      -43.715775
 C         -50.322365     -136.259384      -44.622654
 C         -51.072872     -134.816956      -42.514988
 C         -50.616657     -137.474380      -43.783775
 C         -51.396011     -136.128525      -41.813091
 C         -51.699074     -137.272629      -42.826702
 H         -49.385769     -136.234344      -45.081429
 H         -51.070675     -136.009003      -45.407600
 H         -50.694290     -134.102951      -41.818714
 H         -52.032627     -134.344131      -42.944141
 H         -49.610741     -137.770676      -43.367981
 H         -50.929096     -138.295624      -44.398342
 H         -52.311050     -135.904327      -41.264309
 H         -50.626793     -136.559799      -41.185799
 H         -51.785000     -138.321045      -42.332771
 H         -52.721016     -137.392731      -43.317905
