20
 generated by VMD
 C         -11.454083      -27.344732       -1.390566
 N         -12.183931      -26.512106       -1.541152
 H         -10.473382      -26.107224       -4.091628
 H          -9.172739      -25.711597       -5.291807
 C          -9.376390      -26.045912       -4.263348
 C          -8.914331      -27.509087       -4.149894
 C          -8.660644      -25.114466       -3.218196
 C          -7.395091      -27.584936       -4.209589
 C          -7.136384      -25.241774       -3.390051
 C          -6.791786      -26.726566       -3.113315
 H          -9.297415      -28.088379       -4.935312
 H          -9.253152      -28.051367       -3.225549
 H          -8.946272      -24.080257       -3.453799
 H          -9.008035      -25.373224       -2.216831
 H          -7.048587      -27.350740       -5.253282
 H          -7.063825      -28.642290       -4.057611
 H          -6.631248      -24.545986       -2.657100
 H          -6.862259      -24.789942       -4.356615
 H          -5.710260      -26.845177       -3.099178
 H          -7.064159      -27.002796       -2.066090
