20
 generated by VMD
 C         -40.463726     -117.336296      -34.513443
 N         -39.495464     -116.860016      -34.872597
 H         -41.605568     -116.268112      -37.236183
 H         -41.521729     -117.565987      -34.267513
 C         -42.629498     -116.429474      -37.637131
 C         -42.951984     -116.471016      -39.074677
 C         -43.759182     -116.180466      -36.749271
 C         -44.296158     -117.047104      -39.483837
 C         -45.048664     -116.964394      -37.151924
 C         -45.510303     -116.708458      -38.575565
 H         -42.112949     -116.828011      -39.648598
 H         -42.980808     -115.459831      -39.473248
 H         -43.677715     -116.558815      -35.729183
 H         -43.996548     -115.156837      -36.777203
 H         -44.267487     -118.202843      -39.548260
 H         -44.628250     -116.744766      -40.484905
 H         -45.916351     -116.514038      -36.612663
 H         -44.803982     -117.965355      -36.927326
 H         -46.290871     -117.317162      -38.829788
 H         -45.857067     -115.744316      -38.588036
