20
 generated by VMD
 C         -47.216076     -124.762215      -38.012188
 N         -47.755890     -125.643349      -38.490486
 H         -44.609615     -122.444328      -37.708679
 H         -46.795105     -123.865944      -37.563831
 C         -44.780041     -122.443062      -38.758629
 C         -43.576809     -123.033936      -39.546368
 C         -45.724007     -121.568054      -39.534348
 C         -44.008690     -123.670425      -40.837982
 C         -46.208645     -122.142868      -40.796932
 C         -44.986767     -122.756554      -41.685234
 H         -43.163918     -123.775352      -38.891064
 H         -42.768528     -122.332611      -39.758678
 H         -46.467140     -121.156189      -38.879612
 H         -45.105480     -120.763718      -39.883072
 H         -44.681938     -124.464752      -40.508793
 H         -43.157764     -123.801018      -41.524086
 H         -46.770149     -121.519577      -41.538876
 H         -46.836159     -123.132874      -40.456512
 H         -45.257694     -123.189331      -42.676865
 H         -44.307903     -121.926720      -41.882923
