20
 generated by VMD
 C         -37.935078     -107.980148      -37.273411
 N         -38.747417     -107.728806      -38.099068
 H         -41.018440     -108.338181      -34.751869
 H         -37.273598     -108.301056      -36.463604
 C         -41.013683     -109.361435      -34.534782
 C         -40.026615     -110.512268      -34.773289
 C         -42.379093     -109.708023      -33.955799
 C         -39.988132     -111.312813      -33.527912
 C         -42.204975     -110.529312      -32.697853
 C         -41.351460     -111.795074      -32.905025
 H         -39.081436     -110.092804      -35.186344
 H         -40.437454     -111.006653      -35.666813
 H         -42.965515     -108.831123      -33.702023
 H         -42.865314     -110.236481      -34.784599
 H         -39.485218     -110.888283      -32.723560
 H         -39.408749     -112.203728      -33.719955
 H         -43.143219     -111.023216      -32.182766
 H         -41.704308     -109.848648      -31.960054
 H         -41.111427     -112.274704      -31.937540
 H         -41.849617     -112.480537      -33.525375
