20
 generated by VMD
 C         -68.144493     -188.399643      -66.718361
 N         -68.757133     -188.142319      -67.685333
 H         -68.210014     -186.986267      -63.459854
 H         -67.617950     -188.736542      -65.882652
 C         -69.192375     -187.496414      -63.506016
 C         -69.352730     -188.791077      -62.823616
 C         -70.395866     -186.663071      -63.608952
 C         -70.649544     -189.537827      -63.217106
 C         -71.808647     -187.380310      -63.763626
 C         -71.933540     -188.651611      -62.822903
 H         -69.166855     -188.567917      -61.797306
 H         -68.594032     -189.429840      -63.121193
 H         -70.420715     -186.075424      -62.660229
 H         -70.261208     -186.082428      -64.599197
 H         -70.643082     -190.578476      -62.784603
 H         -70.611183     -189.720367      -64.262726
 H         -71.878868     -187.676102      -64.794357
 H         -72.597389     -186.686584      -63.423489
 H         -71.941910     -188.289093      -61.733238
 H         -72.903816     -189.010666      -63.009407
