20
 generated by VMD
 C         -40.430302      -99.778961      -29.204227
 N         -39.720360     -100.143929      -28.339197
 H         -36.938656      -99.874535      -30.596546
 H         -41.036148      -99.588821      -30.070597
 C         -36.325554      -98.970749      -30.753704
 C         -35.861237      -98.969025      -32.153427
 C         -35.499344      -98.654198      -29.577562
 C         -34.684639      -98.056038      -32.477325
 C         -34.342506      -97.750290      -29.986261
 C         -33.624702      -98.100258      -31.361256
 H         -36.731674      -98.688194      -32.852406
 H         -35.617966     -100.005585      -32.348183
 H         -36.076683      -98.194733      -28.712889
 H         -35.036327      -99.615921      -29.270267
 H         -35.085270      -97.122673      -32.791122
 H         -34.257011      -98.646866      -33.302803
 H         -33.529709      -97.720139      -29.270336
 H         -34.851349      -96.832375      -30.017557
 H         -32.841335      -97.474960      -31.672020
 H         -33.274784      -99.187752      -31.309147
