20
 generated by VMD
 C         -60.069309     -169.690567      -55.397060
 N         -59.545315     -168.719391      -55.135029
 H         -63.457733     -170.496460      -56.675663
 H         -60.454006     -170.642288      -55.693340
 C         -63.323410     -169.433487      -56.881012
 C         -62.714214     -169.011124      -58.224819
 C         -63.645416     -168.449844      -55.782486
 C         -63.418510     -167.690659      -58.623104
 C         -64.233444     -167.191452      -56.443188
 C         -63.421318     -166.647385      -57.531166
 H         -62.731895     -169.722534      -59.045971
 H         -61.610737     -168.951538      -57.924995
 H         -64.274155     -168.786346      -54.980602
 H         -62.750828     -168.080368      -55.335316
 H         -64.457016     -168.018036      -58.773602
 H         -62.969368     -167.330276      -59.588223
 H         -64.417465     -166.505646      -55.673199
 H         -65.178474     -167.387573      -56.784542
 H         -63.882671     -165.803345      -58.038330
 H         -62.343121     -166.449005      -57.194908
