20
 generated by VMD
 C         -66.836807     -191.216522      -66.298203
 N         -67.693237     -190.632919      -66.866966
 H         -70.477676     -190.149231      -66.584023
 H         -66.247704     -191.735245      -65.616043
 C         -71.181030     -190.100739      -65.729378
 C         -72.167427     -191.195740      -65.547012
 C         -70.649857     -189.359604      -64.487534
 C         -73.337952     -190.752609      -64.551201
 C         -71.905197     -188.893402      -63.763947
 C         -72.850372     -190.070770      -63.358627
 H         -71.595375     -191.993408      -65.126877
 H         -72.651604     -191.483765      -66.483429
 H         -70.049850     -189.936722      -63.797894
 H         -70.035782     -188.496155      -64.673134
 H         -74.013161     -191.600906      -64.278534
 H         -74.114166     -190.128601      -65.067726
 H         -72.327950     -188.205109      -64.486923
 H         -71.666260     -188.198486      -62.944881
 H         -72.275322     -190.671219      -62.614857
 H         -73.827393     -189.788803      -62.896328
