20
 generated by VMD
 C         -40.897991     -119.335159      -34.907906
 N         -39.897438     -118.923248      -35.318405
 H         -43.556416     -117.060600      -36.259907
 H         -41.737000     -119.683853      -34.416607
 C         -44.016563     -117.299347      -37.259796
 C         -43.024391     -117.646065      -38.284309
 C         -45.322239     -116.675049      -37.714066
 C         -43.717144     -118.448364      -39.464638
 C         -45.981461     -117.466331      -38.729305
 C         -44.958740     -117.643990      -39.849827
 H         -42.372543     -118.434982      -37.844769
 H         -42.529858     -116.809952      -38.804424
 H         -45.967613     -116.508316      -36.874786
 H         -45.104046     -115.639610      -38.065720
 H         -44.141655     -119.471489      -39.410435
 H         -43.026985     -118.454704      -40.307457
 H         -46.977882     -117.011353      -38.992855
 H         -46.421139     -118.552284      -38.472260
 H         -45.409130     -117.823318      -40.801407
 H         -44.520103     -116.663528      -40.125004
