20
 generated by VMD
 C         -79.726944     -206.345764      -73.235847
 N         -79.435654     -206.484192      -74.322769
 H         -78.222946     -205.278198      -69.726540
 H         -79.775146     -206.128220      -72.150642
 C         -77.327118     -205.762070      -70.167778
 C         -76.470940     -205.036469      -71.123611
 C         -76.976997     -207.142609      -69.791107
 C         -75.038101     -205.033752      -70.614845
 C         -75.556046     -207.098557      -69.178238
 C         -74.589943     -206.406067      -70.153809
 H         -76.658432     -203.953415      -71.150787
 H         -76.601395     -205.325897      -72.118057
 H         -77.733391     -207.294510      -69.018745
 H         -77.031113     -207.927368      -70.595551
 H         -75.009659     -204.403442      -69.725380
 H         -74.335426     -204.656906      -71.353226
 H         -75.316551     -208.129852      -68.894165
 H         -75.575485     -206.405563      -68.328903
 H         -73.598434     -206.523407      -69.643906
 H         -74.625389     -206.920334      -71.096420
