20
 generated by VMD
 C         -50.808800     -129.657486      -46.048256
 N         -50.868454     -130.427231      -45.186550
 H         -48.173840     -131.697861      -44.205299
 H         -50.952702     -129.189850      -46.990658
 C         -47.927639     -131.553741      -43.198990
 C         -48.331642     -132.798096      -42.436974
 C         -47.961742     -130.254135      -42.552505
 C         -47.492393     -132.852386      -41.188728
 C         -47.206497     -130.352203      -41.183380
 C         -47.662064     -131.530289      -40.270931
 H         -48.038818     -133.564011      -43.183472
 H         -49.458305     -132.871643      -42.198662
 H         -47.424854     -129.496384      -43.234283
 H         -48.995564     -129.772324      -42.343555
 H         -46.410160     -132.964554      -41.366573
 H         -47.766579     -133.752914      -40.608829
 H         -47.233616     -129.391739      -40.585590
 H         -46.086697     -130.545944      -41.341496
 H         -47.058331     -131.786179      -39.458862
 H         -48.726799     -131.524567      -39.980991
