20
 generated by VMD
 C         -40.070763     -105.134583      -37.084393
 N         -39.748524     -104.034706      -37.034824
 H         -40.041801     -108.056862      -35.094563
 H         -40.455059     -106.133530      -36.944500
 C         -39.650646     -108.708450      -34.353779
 C         -38.496758     -108.119255      -33.542782
 C         -40.306564     -109.749527      -33.646679
 C         -38.940899     -107.707924      -32.166454
 C         -40.682579     -109.536194      -32.177162
 C         -39.472355     -109.024506      -31.400013
 H         -38.138786     -107.181847      -34.172935
 H         -37.571316     -108.821915      -33.484772
 H         -41.209518     -109.916290      -34.240700
 H         -39.715878     -110.666092      -33.618877
 H         -39.610107     -106.854591      -32.272163
 H         -38.036667     -107.373260      -31.696575
 H         -40.870667     -110.542397      -31.791267
 H         -41.637611     -108.911057      -32.104126
 H         -39.793755     -108.742249      -30.393373
 H         -38.651970     -109.892769      -31.344828
