20
 generated by VMD
 C         -69.975655     -182.975800      -65.956329
 N         -71.115128     -183.176987      -65.672089
 H         -67.645088     -182.995071      -63.172070
 H         -68.961716     -182.806580      -66.218140
 C         -67.455421     -182.584732      -62.164341
 C         -67.609695     -183.483810      -60.950962
 C         -67.169922     -181.171494      -61.952042
 C         -66.778778     -183.208908      -59.755672
 C         -66.295967     -180.899582      -60.806293
 C         -66.747742     -181.683777      -59.580433
 H         -67.327354     -184.494537      -61.288452
 H         -68.760895     -183.368317      -60.772743
 H         -66.936005     -180.800049      -62.930046
 H         -68.168121     -180.594040      -61.695168
 H         -65.861320     -183.592453      -59.976395
 H         -67.271080     -183.662918      -58.831615
 H         -66.275909     -179.806824      -60.574432
 H         -65.228416     -181.193817      -61.015137
 H         -66.099388     -181.479477      -58.723621
 H         -67.722710     -181.244171      -59.252602
