20
 generated by VMD
 C         -59.381115     -168.443359      -55.602066
 N         -58.750290     -168.850601      -54.725948
 H         -62.334835     -169.507721      -55.842449
 H         -59.921333     -168.208481      -56.509689
 C         -62.670185     -168.584244      -56.360470
 C         -62.781414     -168.488251      -57.892479
 C         -62.933666     -167.408676      -55.550034
 C         -63.895298     -167.620239      -58.381927
 C         -64.154976     -166.504929      -56.065578
 C         -63.960773     -166.216202      -57.599255
 H         -62.910442     -169.612335      -58.270615
 H         -61.872227     -168.094437      -58.252811
 H         -63.048820     -167.560669      -54.424389
 H         -62.150139     -166.652908      -55.575882
 H         -64.799156     -168.242432      -58.253639
 H         -63.660347     -167.432266      -59.433540
 H         -64.093590     -165.622101      -55.447296
 H         -65.015907     -167.152100      -56.066528
 H         -64.802200     -165.697205      -58.138237
 H         -62.984688     -165.607849      -57.780560
