20
 generated by VMD
 C         -59.012688     -158.822739      -57.348194
 N         -58.839123     -158.166626      -58.226498
 H         -59.746529     -159.329773      -54.238373
 H         -59.231838     -159.493759      -56.520142
 C         -59.619991     -160.152481      -53.599102
 C         -58.521709     -160.270447      -52.621735
 C         -60.588631     -161.288376      -53.734051
 C         -59.001152     -160.740295      -51.174915
 C         -61.040298     -161.573654      -52.282730
 C         -59.848606     -161.926315      -51.411961
 H         -58.075699     -159.280151      -52.567162
 H         -57.624584     -160.990585      -52.831768
 H         -61.313862     -160.862671      -54.418270
 H         -60.129192     -162.167053      -54.088432
 H         -59.545750     -159.932419      -50.809807
 H         -57.962917     -161.043121      -50.735123
 H         -61.709629     -162.391922      -52.256985
 H         -61.558899     -160.743301      -51.811642
 H         -60.088295     -162.320053      -50.396976
 H         -59.115685     -162.613632      -52.048351
