20
 generated by VMD
 C         -23.261318      -53.898460      -14.848307
 N         -24.243639      -53.391869      -15.138068
 H         -20.046709      -54.878860      -15.505318
 H         -22.341358      -54.411095      -14.448665
 C         -19.581818      -55.242767      -14.590322
 C         -18.990782      -54.247391      -13.597453
 C         -18.913563      -56.619987      -14.876627
 C         -18.423758      -55.071129      -12.453831
 C         -17.945953      -57.070614      -13.858559
 C         -17.313437      -55.936222      -12.998942
 H         -19.764957      -53.553036      -13.201781
 H         -18.316887      -53.519234      -14.097163
 H         -19.715281      -57.315762      -14.952095
 H         -18.477991      -56.478577      -15.913300
 H         -19.243771      -55.623959      -12.036695
 H         -17.960463      -54.423336      -11.688384
 H         -17.125328      -57.656094      -14.262000
 H         -18.433746      -57.772770      -13.137774
 H         -16.764126      -56.388340      -12.147360
 H         -16.647104      -55.259239      -13.644440
