20
 generated by VMD
 C         -15.220328      -46.899189       -6.245253
 N         -15.162029      -47.124039       -5.162861
 H         -15.971819      -46.140068       -9.691334
 H         -14.988247      -45.872124      -11.166345
 C         -16.030743      -45.872700      -10.751665
 C         -16.420870      -44.407719      -10.941485
 C         -16.820147      -46.940735      -11.580290
 C         -16.397972      -44.184708      -12.432917
 C         -16.800224      -46.652370      -13.114941
 C         -17.213413      -45.184757      -13.260500
 H         -15.636540      -43.833176      -10.496919
 H         -17.380455      -44.182533      -10.471374
 H         -16.280100      -47.884277      -11.496795
 H         -17.805063      -47.006287      -11.174243
 H         -15.393368      -44.304688      -12.845340
 H         -16.756809      -43.155624      -12.594039
 H         -17.516882      -47.336823      -13.696105
 H         -15.814482      -46.753010      -13.545388
 H         -17.201580      -44.798389      -14.309579
 H         -18.307428      -45.176151      -13.019890
