20
 generated by VMD
 C         -21.573383      -65.526596      -17.114796
 N         -20.865673      -65.942245      -16.337444
 H         -23.996696      -63.782139      -17.957001
 H         -22.346403      -65.293068      -17.955799
 C         -24.260723      -64.785118      -18.252214
 C         -24.560892      -65.145691      -19.629629
 C         -25.230709      -65.495796      -17.322191
 C         -24.308708      -66.645630      -19.850481
 C         -24.912590      -67.065308      -17.445551
 C         -25.155684      -67.537735      -18.889954
 H         -23.934929      -64.376793      -20.227995
 H         -25.563822      -65.028954      -19.926281
 H         -25.300934      -65.105377      -16.402107
 H         -26.193378      -65.366203      -17.785250
 H         -23.205164      -66.690125      -19.595474
 H         -24.381998      -66.936760      -20.925638
 H         -25.505968      -67.681671      -16.704920
 H         -23.829790      -67.190544      -17.179890
 H         -24.922857      -68.652039      -18.975515
 H         -26.243521      -67.456779      -19.112225
