20
 generated by VMD
 C         -28.075129      -81.948776      -26.487324
 N         -28.102472      -82.329056      -27.588079
 H         -30.760015      -83.891014      -26.321527
 H         -27.989510      -81.499062      -25.437880
 C         -31.060310      -84.467583      -25.537022
 C         -30.708479      -84.299057      -24.015879
 C         -31.863712      -85.790634      -25.973677
 C         -31.813749      -84.762215      -23.120304
 C         -32.916481      -86.160805      -24.813568
 C         -32.269169      -86.126869      -23.507973
 H         -30.398796      -83.288277      -23.815371
 H         -29.803566      -84.835945      -23.748365
 H         -32.352913      -85.531960      -26.940948
 H         -31.275452      -86.657303      -26.077354
 H         -32.634945      -84.144356      -23.103689
 H         -31.537008      -84.820877      -22.047277
 H         -33.244858      -87.181198      -25.132504
 H         -33.798370      -85.489632      -24.838337
 H         -32.973087      -86.596458      -22.679216
 H         -31.374594      -86.763710      -23.585308
