20
 generated by VMD
 C         -36.703106      -98.185883      -27.009842
 N         -37.834213      -98.323410      -26.720547
 H         -36.439270      -96.297958      -28.901567
 H         -35.662876      -97.992043      -27.194893
 C         -35.463642      -96.441895      -29.445549
 C         -35.484875      -97.070541      -30.775370
 C         -34.464188      -95.399277      -28.986275
 C         -35.121521      -96.153816      -31.917072
 C         -34.157146      -94.517479      -30.187431
 C         -33.878807      -95.283340      -31.468065
 H         -36.465237      -97.478249      -30.907209
 H         -34.820312      -97.968689      -30.667488
 H         -34.939899      -94.794067      -28.150536
 H         -33.469799      -95.751892      -28.613884
 H         -36.007919      -95.535744      -32.100639
 H         -34.935432      -96.773903      -32.893242
 H         -33.221951      -93.924110      -30.036615
 H         -34.992054      -93.857117      -30.461788
 H         -33.770004      -94.443970      -32.339153
 H         -32.875950      -95.862862      -31.373514
