20
 generated by VMD
 C         -14.374946      -45.469898       -6.055513
 N         -14.501888      -45.914566       -7.076200
 H         -15.098097      -44.125084       -9.076144
 H         -14.579629      -43.990814      -10.721199
 C         -15.454168      -44.274693      -10.131528
 C         -16.475937      -43.226212      -10.573088
 C         -15.878869      -45.761425      -10.421837
 C         -16.777355      -43.578575      -12.053098
 C         -16.234303      -45.998848      -11.881107
 C         -17.303688      -45.026840      -12.345800
 H         -16.004963      -42.249401      -10.418251
 H         -17.362333      -43.218681       -9.971270
 H         -15.056616      -46.484951      -10.154784
 H         -16.671772      -46.032623       -9.708814
 H         -15.830111      -43.551048      -12.638541
 H         -17.481071      -42.872288      -12.495526
 H         -16.712194      -47.036678      -11.915255
 H         -15.358414      -45.980431      -12.517845
 H         -17.475086      -45.096935      -13.479862
 H         -18.258354      -45.280022      -11.842508
