20
 generated by VMD
 C         -44.812225     -122.448151      -35.625923
 N         -44.985039     -123.274849      -34.865891
 H         -45.191284     -122.509743      -38.706501
 H         -44.821434     -121.593307      -36.320160
 C         -44.907578     -121.776131      -39.390987
 C         -43.455914     -121.404366      -39.680412
 C         -46.095360     -120.799515      -39.707775
 C         -43.314423     -120.355339      -40.727787
 C         -45.728764     -119.667999      -40.644180
 C         -44.317879     -119.198639      -40.482624
 H         -42.865597     -122.306168      -39.838516
 H         -42.944965     -120.972099      -38.917587
 H         -47.042271     -121.434654      -40.049721
 H         -46.349503     -120.322060      -38.702499
 H         -43.656193     -120.967896      -41.582268
 H         -42.274395     -119.955498      -40.713085
 H         -46.464478     -118.833771      -40.469570
 H         -45.836899     -120.132072      -41.684345
 H         -44.159649     -118.439812      -41.276630
 H         -44.226521     -118.682106      -39.464897
