20
 generated by VMD
 C         -57.022793     -163.420135      -56.653965
 N         -57.211090     -162.516220      -57.293186
 H         -59.812634     -165.375351      -54.861855
 H         -56.797764     -164.276764      -56.014790
 C         -60.810909     -164.823273      -54.711563
 C         -61.495693     -164.892090      -53.397972
 C         -61.592628     -164.484100      -55.936794
 C         -62.712868     -164.109085      -53.281467
 C         -62.793766     -163.745819      -55.563087
 C         -63.635033     -164.351501      -54.455650
 H         -60.844879     -164.765030      -52.494667
 H         -61.648552     -165.993530      -53.196274
 H         -60.821880     -163.881546      -56.559639
 H         -61.837337     -165.440765      -56.478962
 H         -62.477871     -163.067932      -53.335880
 H         -63.254379     -164.441254      -52.351681
 H         -63.395203     -163.709503      -56.424747
 H         -62.770061     -162.715134      -55.529934
 H         -64.487312     -163.751862      -54.225750
 H         -63.889427     -165.382126      -54.576145
