20
 generated by VMD
 C          -9.657825      -24.906178        0.594991
 N         -10.605740      -25.370085        0.247798
 H          -6.240257      -23.859821       -0.912419
 H          -7.985276      -23.388157       -1.106232
 C          -7.008555      -23.696735       -1.661005
 C          -7.172788      -24.945448       -2.471361
 C          -6.505235      -22.545256       -2.504548
 C          -8.151094      -24.665636       -3.597673
 C          -7.519629      -22.296362       -3.663009
 C          -7.563780      -23.595781       -4.494537
 H          -7.717458      -25.655209       -1.879070
 H          -6.152545      -25.320480       -2.818198
 H          -6.482220      -21.709503       -1.786552
 H          -5.496582      -22.717876       -2.816660
 H          -9.146059      -24.433422       -3.170758
 H          -8.197181      -25.569227       -4.154417
 H          -7.172784      -21.464172       -4.329144
 H          -8.558707      -22.048265       -3.366345
 H          -8.235318      -23.499483       -5.377623
 H          -6.637706      -23.823238       -4.974184
