20
 generated by VMD
 C          -2.800739       -9.573563        0.100529
 N          -1.851789       -8.958592        0.226139
 H          -2.030636      -11.734576        2.848105
 H          -2.921569      -12.483809        4.286666
 C          -2.865590      -12.277908        3.204369
 C          -2.557215      -13.605737        2.505347
 C          -4.203938      -11.703813        2.713973
 C          -3.644392      -14.585361        2.894243
 C          -5.305336      -12.687629        3.051473
 C          -5.071306      -14.105988        2.536360
 H          -1.620196      -14.065363        2.920501
 H          -2.465191      -13.481700        1.398941
 H          -4.420761      -10.713853        3.266785
 H          -4.284094      -11.491340        1.618461
 H          -3.663682      -14.597392        4.004620
 H          -3.489723      -15.656336        2.526088
 H          -6.216232      -12.254560        2.681318
 H          -5.342240      -12.693204        4.107636
 H          -5.842133      -14.786484        2.856079
 H          -5.148492      -14.042250        1.447915
