20
 generated by VMD
 C         -68.659485     -193.961243      -66.590057
 N         -67.708206     -193.784454      -65.893944
 H         -70.116264     -190.885635      -66.180779
 H         -69.297821     -194.060074      -67.411667
 C         -71.157272     -190.975830      -65.833092
 C         -72.226524     -190.346527      -66.545937
 C         -71.449814     -191.473907      -64.383743
 C         -73.454765     -191.259949      -66.678223
 C         -72.938469     -191.384338      -64.078163
 C         -73.794205     -191.905426      -65.282616
 H         -71.905884     -190.107544      -67.516693
 H         -72.638069     -189.411072      -66.157707
 H         -71.162766     -192.434937      -64.204803
 H         -70.850876     -190.856323      -63.706181
 H         -73.205521     -192.011246      -67.355896
 H         -74.257820     -190.631439      -66.939880
 H         -73.375282     -190.420029      -63.736320
 H         -73.122543     -191.985672      -63.217461
 H         -73.852173     -193.101807      -65.370392
 H         -74.757957     -191.725037      -64.930946
