20
 generated by VMD
 C         -40.920700     -101.162682      -32.803963
 N         -42.065430     -101.481483      -32.810471
 H         -38.436722     -103.293724      -32.473190
 H         -39.965206     -100.783836      -32.989777
 C         -37.620358     -102.776817      -32.004913
 C         -36.313206     -102.793022      -32.867382
 C         -37.481724     -102.786835      -30.525095
 C         -35.247952     -101.833290      -32.359627
 C         -36.152573     -102.186584      -29.982964
 C         -34.963715     -102.378105      -30.964804
 H         -36.544605     -102.583801      -33.874783
 H         -36.066555     -103.836342      -32.854229
 H         -38.483624     -102.324921      -30.093811
 H         -37.434021     -103.846115      -30.250528
 H         -35.477646     -100.754395      -32.316719
 H         -34.469776     -102.079681      -33.015289
 H         -35.872967     -102.600586      -29.053310
 H         -36.444065     -101.135513      -29.734154
 H         -34.144924     -101.868591      -30.475681
 H         -34.570885     -103.408646      -31.125698
