20
 generated by VMD
 C         -68.502426     -185.382996      -67.281670
 N         -67.643982     -185.189102      -66.545807
 H         -69.216896     -187.195587      -64.975594
 H         -69.269585     -185.721649      -68.000801
 C         -69.538528     -186.950516      -63.937023
 C         -70.240295     -185.750961      -63.484806
 C         -69.681099     -188.108078      -62.951591
 C         -69.728912     -185.403427      -62.079922
 C         -69.475693     -187.741486      -61.493248
 C         -70.158447     -186.440628      -61.106777
 H         -71.298203     -186.078415      -63.509106
 H         -70.171661     -185.006073      -64.226807
 H         -70.645699     -188.615738      -63.166588
 H         -68.948189     -188.892349      -63.056438
 H         -70.074623     -184.403122      -61.760464
 H         -68.674904     -185.326279      -62.105373
 H         -68.337296     -187.460312      -61.387829
 H         -69.763199     -188.604416      -60.794060
 H         -71.233887     -186.725052      -61.125195
 H         -69.792908     -186.197937      -60.118752
