20
 generated by VMD
 C         -29.628185      -88.277534      -25.821095
 N         -29.270773      -89.052399      -25.008087
 H         -31.357698      -90.064301      -27.596132
 H         -29.921593      -87.671005      -26.757130
 C         -32.341640      -89.739845      -27.445530
 C         -32.990402      -89.876633      -26.120541
 C         -33.317871      -89.448914      -28.681057
 C         -33.791740      -88.626953      -25.813984
 C         -34.023453      -88.192123      -28.293766
 C         -34.700336      -88.274643      -26.937057
 H         -32.328239      -90.287781      -25.334023
 H         -33.698048      -90.703339      -26.084494
 H         -32.920696      -89.224174      -29.666435
 H         -34.055485      -90.336502      -28.707058
 H         -33.111137      -87.807968      -25.718491
 H         -34.284302      -88.922760      -24.886824
 H         -34.873417      -88.030159      -29.008680
 H         -33.329613      -87.326546      -28.317543
 H         -35.185345      -87.303101      -26.606745
 H         -35.608978      -88.987564      -26.949301
