20
 generated by VMD
 C         -15.133256      -46.383663       -5.765843
 N         -14.868505      -47.422924       -5.477542
 H         -15.791051      -45.269096       -9.532161
 H         -14.805605      -45.365635      -11.034088
 C         -15.813712      -45.343376      -10.597632
 C         -16.446930      -44.107769      -11.183087
 C         -16.505476      -46.609367      -11.110465
 C         -16.567686      -43.987000      -12.733918
 C         -16.676847      -46.406231      -12.666872
 C         -17.362047      -45.130154      -13.206970
 H         -15.820997      -43.269802      -10.946954
 H         -17.454432      -43.975643      -10.737282
 H         -15.821140      -47.485428      -11.043730
 H         -17.462896      -46.743340      -10.567421
 H         -15.553751      -44.109165      -13.108097
 H         -16.992216      -43.015179      -13.060632
 H         -17.274628      -47.239059      -12.945027
 H         -15.708664      -46.548481      -13.096732
 H         -17.326277      -45.106346      -14.292888
 H         -18.443970      -45.168674      -13.020482
