20
 generated by VMD
 C         -41.671242     -102.310860      -34.095123
 N         -40.907112     -101.819481      -34.826080
 H         -39.473812     -103.949753      -32.474884
 H         -42.533821     -102.625168      -33.515789
 C         -38.487934     -104.081360      -32.098293
 C         -37.254784     -103.613235      -33.020374
 C         -38.129375     -105.053574      -30.923697
 C         -35.976318     -103.297768      -32.303852
 C         -36.911762     -104.399193      -30.286547
 C         -35.712822     -104.339439      -31.174139
 H         -37.479237     -102.706535      -33.560509
 H         -37.405010     -104.368095      -33.820541
 H         -38.989990     -105.073982      -30.229588
 H         -37.938282     -106.097939      -31.328331
 H         -35.858963     -102.329086      -31.882666
 H         -35.140610     -103.450027      -32.961800
 H         -36.506927     -104.987907      -29.342339
 H         -37.154934     -103.411919      -29.970350
 H         -34.764763     -104.064651      -30.628981
 H         -35.512814     -105.277145      -31.583462
