20
 generated by VMD
 C         -47.937256     -134.566010      -46.938156
 N         -47.995834     -134.081161      -48.026497
 H         -50.312805     -134.359253      -44.925537
 H         -47.978264     -134.997833      -45.934155
 C         -50.480179     -135.282043      -44.271324
 C         -50.826462     -136.463409      -45.062485
 C         -51.110989     -135.087494      -42.839306
 C         -50.932487     -137.789352      -44.174259
 C         -51.208397     -136.385361      -42.108597
 C         -51.802364     -137.559174      -43.002945
 H         -50.015228     -136.775314      -45.772472
 H         -51.695850     -136.360931      -45.614449
 H         -50.465485     -134.468887      -42.232723
 H         -52.076328     -134.559616      -42.786125
 H         -49.882488     -137.904160      -43.798233
 H         -51.210922     -138.751038      -44.656822
 H         -51.966824     -136.081879      -41.300560
 H         -50.245960     -136.610123      -41.601688
 H         -51.795830     -138.488922      -42.440792
 H         -52.909534     -137.574585      -43.333591
