20
 generated by VMD
 C         -68.398666     -195.495499      -64.671631
 N         -68.668304     -196.596268      -64.846748
 H         -71.272560     -194.415283      -67.030548
 H         -67.824715     -194.573929      -64.540359
 C         -72.121361     -193.820969      -67.261604
 C         -72.170303     -192.390717      -66.809456
 C         -73.308731     -194.622147      -67.550125
 C         -73.498642     -191.967041      -66.109726
 C         -74.701813     -193.992599      -67.074806
 C         -74.655640     -192.431610      -66.985023
 H         -71.812004     -191.672501      -67.621277
 H         -71.410820     -192.196991      -66.122345
 H         -73.392159     -194.728622      -68.614914
 H         -73.222771     -195.597992      -67.191231
 H         -73.564743     -190.885773      -65.879494
 H         -73.526268     -192.449707      -65.066597
 H         -75.026039     -194.405334      -66.082108
 H         -75.470490     -194.282898      -67.765800
 H         -74.752052     -192.012802      -67.967857
 H         -75.695702     -192.199158      -66.499878
