20
 generated by VMD
 C         -79.486946     -205.123901      -70.954086
 N         -80.619995     -205.452972      -70.914032
 H         -77.068314     -203.021393      -69.263596
 H         -78.409576     -204.859909      -70.796265
 C         -76.015678     -203.077087      -69.508522
 C         -75.538353     -201.963364      -70.365700
 C         -75.078491     -204.183289      -69.081314
 C         -73.943039     -201.738098      -70.378304
 C         -73.608032     -203.957184      -69.170113
 C         -73.064735     -202.999298      -70.186218
 H         -75.894592     -200.989243      -70.009544
 H         -75.959694     -202.061539      -71.403259
 H         -75.223473     -204.290298      -68.025772
 H         -75.404701     -205.081161      -69.506561
 H         -73.758698     -200.942291      -69.614944
 H         -73.709946     -201.312256      -71.420845
 H         -73.074615     -204.903061      -69.193390
 H         -73.244080     -203.511963      -68.134514
 H         -72.099556     -202.592789      -69.744080
 H         -72.717331     -203.438263      -71.099495
