20
 generated by VMD
 C         -38.034687     -109.637474      -36.467129
 N         -37.431038     -108.881622      -35.827412
 H         -41.235161     -111.575218      -37.210892
 H         -38.415340     -110.365875      -37.190876
 C         -41.582073     -112.159760      -36.338879
 C         -42.279587     -113.517860      -36.397118
 C         -41.680836     -111.258934      -35.215073
 C         -42.666073     -113.945770      -35.010548
 C         -42.263004     -111.789299      -33.943775
 C         -43.277500     -112.899734      -34.128277
 H         -41.783520     -114.263374      -37.005398
 H         -43.150948     -113.285049      -36.969833
 H         -40.743904     -110.860001      -34.915535
 H         -42.282951     -110.372948      -35.412434
 H         -41.774029     -114.426025      -34.558006
 H         -43.364082     -114.735237      -35.083115
 H         -42.669468     -110.909355      -33.397133
 H         -41.469620     -112.268044      -33.286953
 H         -43.626202     -113.337479      -33.116585
 H         -44.089348     -112.517242      -34.626003
