20
 generated by VMD
 C         -30.051315      -89.608704      -25.758623
 N         -29.224192      -90.396973      -25.881401
 H         -32.209167      -91.192322      -26.551514
 H         -30.698656      -88.841911      -25.547798
 C         -32.898201      -90.734726      -27.230526
 C         -34.307346      -91.293510      -27.257303
 C         -32.675377      -89.585762      -28.181721
 C         -35.290199      -90.158043      -27.034737
 C         -33.555992      -88.424202      -27.697527
 C         -34.974411      -89.016579      -27.942011
 H         -34.425655      -92.068871      -26.505480
 H         -34.586716      -91.623734      -28.303560
 H         -31.599268      -89.257118      -28.263752
 H         -32.960892      -90.024986      -29.182989
 H         -35.400787      -89.929482      -25.907721
 H         -36.252285      -90.581039      -27.327753
 H         -33.393826      -87.565514      -28.343498
 H         -33.481331      -88.140129      -26.603476
 H         -35.536369      -88.113724      -27.619778
 H         -35.051529      -89.146309      -29.135105
