20
 generated by VMD
 C         -37.965099     -109.676720      -36.484142
 N         -37.438942     -108.869514      -35.839905
 H         -40.597427     -112.190422      -37.022488
 H         -38.660702     -110.455872      -36.884575
 C         -41.457722     -112.319374      -36.338692
 C         -42.338127     -113.589790      -36.462460
 C         -41.643120     -111.240891      -35.182098
 C         -42.919918     -114.040504      -35.104191
 C         -42.280430     -111.853943      -33.982288
 C         -43.338810     -112.997513      -34.156403
 H         -41.813805     -114.445305      -36.937817
 H         -43.201603     -113.401207      -37.026402
 H         -40.707054     -110.805702      -34.978210
 H         -42.242931     -110.550888      -35.752762
 H         -42.112694     -114.488731      -34.623348
 H         -43.752991     -114.723312      -35.241016
 H         -42.700264     -110.998741      -33.510231
 H         -41.626083     -112.218063      -33.258923
 H         -43.594009     -113.366974      -33.070019
 H         -44.300892     -112.547295      -34.510754
