20
 generated by VMD
 C         -11.335320      -34.168621       -8.670638
 N         -10.737176      -35.079708       -8.699443
 H         -11.977552      -37.319939       -7.679719
 H         -12.903516      -36.944340       -6.330122
 C         -12.819410      -37.684967       -7.114209
 C         -12.491259      -39.110519       -6.713951
 C         -13.993735      -37.635201       -8.097560
 C         -13.698238      -39.810966       -6.034424
 C         -15.258698      -38.264099       -7.449137
 C         -14.984903      -39.727119       -6.927830
 H         -11.553993      -39.168694       -6.191432
 H         -12.242956      -39.671329       -7.606114
 H         -14.268066      -36.663185       -8.513565
 H         -13.734891      -38.174713       -9.038938
 H         -13.818332      -39.355583       -5.070582
 H         -13.486760      -40.882080       -5.716333
 H         -16.109598      -38.282948       -8.131893
 H         -15.573649      -37.655987       -6.526189
 H         -15.861955      -40.002827       -6.336204
 H         -14.880571      -40.480595       -7.773550
