20
 generated by VMD
 C         -78.364311     -209.609940      -76.987076
 N         -78.582901     -208.937958      -77.899109
 H         -78.917099     -210.564880      -73.407715
 H         -78.095795     -210.278656      -76.116913
 C         -78.855705     -211.594604      -73.019218
 C         -77.789619     -212.023880      -72.132515
 C         -80.027306     -212.556961      -72.845505
 C         -78.201248     -212.269852      -70.626724
 C         -80.428192     -213.013367      -71.470428
 C         -79.312073     -213.319229      -70.472862
 H         -77.012917     -211.210129      -72.221603
 H         -77.459526     -213.006012      -72.487320
 H         -80.911537     -212.080170      -73.245750
 H         -79.936104     -213.347458      -73.632385
 H         -78.550842     -211.298828      -70.319817
 H         -77.393806     -212.607971      -69.982765
 H         -81.000595     -214.022034      -71.465004
 H         -81.066673     -212.206970      -70.995468
 H         -79.687180     -213.370758      -69.419167
 H         -78.790474     -214.168320      -70.798279
