20
 generated by VMD
 C         -43.059563     -120.768394      -35.361015
 N         -42.662060     -120.958557      -34.300892
 H         -44.316551     -121.322464      -38.846031
 H         -43.360233     -120.745171      -36.360737
 C         -44.138779     -120.230492      -38.711239
 C         -43.036976     -119.620148      -39.537224
 C         -45.203133     -119.297264      -38.075943
 C         -43.776321     -118.880211      -40.771534
 C         -45.951900     -118.769600      -39.303349
 C         -45.066692     -118.049339      -40.339397
 H         -42.514301     -120.400795      -40.093994
 H         -42.284435     -118.908188      -38.934700
 H         -45.871792     -119.833473      -37.397388
 H         -44.768673     -118.431992      -37.427349
 H         -43.807350     -119.737389      -41.436619
 H         -43.105244     -118.169487      -41.239235
 H         -46.600079     -117.994690      -39.040497
 H         -46.411377     -119.622299      -39.900436
 H         -45.706974     -117.992729      -41.184387
 H         -44.586109     -117.133965      -39.978962
