20
 generated by VMD
 C         -41.838902     -102.044907      -33.838646
 N         -40.733177     -101.908546      -34.193508
 H         -39.209518     -103.965340      -32.698441
 H         -42.792839     -102.454414      -33.413311
 C         -38.285358     -103.792496      -32.291660
 C         -37.078716     -103.542259      -33.174335
 C         -38.021263     -104.554756      -30.847824
 C         -35.905155     -103.083214      -32.412640
 C         -36.795761     -104.052727      -30.130901
 C         -35.643433     -103.914108      -31.127781
 H         -37.480782     -102.915695      -33.968784
 H         -36.748116     -104.463409      -33.636707
 H         -38.933834     -104.336678      -30.181808
 H         -38.146748     -105.578239      -31.060181
 H         -36.014729     -102.012215      -32.081303
 H         -34.880878     -103.174644      -32.880981
 H         -36.489693     -104.749184      -29.363777
 H         -36.918793     -103.095810      -29.622028
 H         -34.873703     -103.430740      -30.460735
 H         -35.293571     -104.961815      -31.410501
