20
 generated by VMD
 C         -15.994058      -47.653629       -6.813262
 N         -15.906158      -46.548569       -6.626728
 H         -16.815125      -47.888206      -10.072685
 H         -15.366363      -47.688683      -11.126382
 C         -16.410767      -47.328175      -10.939765
 C         -16.434639      -45.869595      -10.604918
 C         -17.272535      -47.585312      -12.208954
 C         -15.970777      -44.972137      -11.793158
 C         -16.975025      -46.733929      -13.404924
 C         -16.929798      -45.310059      -12.936393
 H         -15.707124      -45.712330       -9.806139
 H         -17.381521      -45.616741      -10.212575
 H         -17.184589      -48.614540      -12.460390
 H         -18.301271      -47.413651      -11.935438
 H         -14.915945      -45.080364      -12.069461
 H         -16.092234      -43.923485      -11.559124
 H         -17.665552      -46.948658      -14.228705
 H         -15.954978      -46.862183      -13.901658
 H         -16.691156      -44.621532      -13.823970
 H         -17.979147      -44.958870      -12.745103
