20
 generated by VMD
 C         -40.329834     -118.510246      -35.001396
 N         -39.443916     -117.782013      -35.033421
 H         -42.975002     -117.111732      -36.175434
 H         -41.118046     -119.207825      -34.977238
 C         -43.503273     -116.866928      -37.088287
 C         -42.878044     -117.091698      -38.431580
 C         -44.864120     -116.127235      -37.253048
 C         -43.855682     -117.796654      -39.404583
 C         -45.801826     -117.048264      -38.070976
 C         -45.271339     -117.280785      -39.426365
 H         -42.025352     -117.735458      -38.292194
 H         -42.549335     -116.195496      -38.886990
 H         -45.309387     -115.968155      -36.233200
 H         -44.663563     -115.086296      -37.794415
 H         -43.970913     -118.851822      -38.989281
 H         -43.251595     -117.988960      -40.339542
 H         -46.736492     -116.584320      -38.146118
 H         -46.101162     -118.006416      -37.623436
 H         -45.944321     -117.817513      -40.077194
 H         -45.184246     -116.236084      -40.006622
