20
 generated by VMD
 C         -58.538582     -152.105392      -49.390633
 N         -59.648994     -152.179672      -49.433258
 H         -55.771275     -150.025879      -47.847820
 H         -57.459522     -151.889084      -49.324612
 C         -55.214828     -149.698318      -48.739780
 C         -54.400970     -150.701172      -49.440048
 C         -54.887394     -148.333466      -49.029270
 C         -54.212082     -150.401550      -50.952171
 C         -54.746944     -148.043106      -50.497368
 C         -53.763702     -148.962875      -51.209499
 H         -55.006420     -151.606384      -49.352844
 H         -53.390636     -150.752594      -48.855831
 H         -55.607346     -147.575699      -48.515072
 H         -53.911560     -148.105789      -48.540974
 H         -55.102093     -150.652359      -51.577541
 H         -53.369331     -150.995956      -51.343861
 H         -54.577854     -147.060135      -50.780499
 H         -55.873493     -148.036682      -50.951408
 H         -53.846653     -148.804977      -52.327915
 H         -52.751251     -148.771484      -50.995960
