20
 generated by VMD
 C         -24.710604      -70.090172      -16.393635
 N         -24.732199      -70.761154      -15.423283
 H         -23.590620      -67.961327      -18.760305
 H         -24.840269      -69.484680      -17.215757
 C         -24.240889      -68.309158      -19.602705
 C         -23.768246      -68.858017      -20.847399
 C         -25.740507      -67.976768      -19.577620
 C         -24.743174      -70.001358      -21.337078
 C         -26.744093      -69.031021      -20.101414
 C         -26.327656      -69.711388      -21.438234
 H         -22.840015      -69.290642      -20.872282
 H         -23.603987      -67.998337      -21.510033
 H         -25.895197      -67.690857      -18.527065
 H         -25.877396      -67.219368      -20.280731
 H         -24.589027      -70.774689      -20.498131
 H         -24.432779      -70.356346      -22.322063
 H         -27.785852      -68.679268      -20.247574
 H         -26.808636      -69.800514      -19.321489
 H         -26.861891      -70.631279      -21.662949
 H         -26.615646      -69.072960      -22.285334
