20
 generated by VMD
 C         -49.588451     -141.622665      -45.781616
 N         -49.557793     -142.272034      -44.782951
 H         -51.695892     -138.463562      -46.007980
 H         -49.463936     -140.942169      -46.601887
 C         -52.281590     -139.321136      -46.452999
 C         -52.804455     -139.576523      -47.795624
 C         -52.965889     -140.082138      -45.322037
 C         -53.152599     -141.064346      -48.231667
 C         -53.173668     -141.645065      -45.684658
 C         -53.853237     -141.784256      -47.111763
 H         -52.176781     -138.981033      -48.519157
 H         -53.792770     -139.083496      -47.709522
 H         -52.295849     -140.137802      -44.506760
 H         -53.932217     -139.644180      -45.134457
 H         -52.202450     -141.479355      -48.530647
 H         -53.755890     -141.116180      -49.198151
 H         -53.828960     -142.145935      -45.014107
 H         -52.181252     -142.189438      -45.711552
 H         -53.978058     -142.923080      -47.367500
 H         -54.879635     -141.277023      -47.151649
