20
 generated by VMD
 C         -21.662170      -66.613640      -16.759964
 N         -20.935535      -66.926689      -15.921286
 H         -23.999836      -64.912376      -17.946293
 H         -22.110697      -66.587143      -17.783800
 C         -24.650633      -65.443428      -18.548552
 C         -24.032274      -65.966179      -19.891848
 C         -25.930004      -65.982597      -18.015167
 C         -24.342653      -67.424995      -20.192554
 C         -25.938004      -67.491470      -18.116343
 C         -25.642742      -68.037628      -19.534164
 H         -22.824520      -65.874573      -19.798347
 H         -24.354002      -65.422554      -20.766569
 H         -25.882660      -65.671494      -17.029375
 H         -26.860851      -65.506332      -18.346756
 H         -23.512724      -67.939659      -19.808491
 H         -24.300329      -67.479156      -21.294058
 H         -26.793657      -68.005852      -17.781239
 H         -25.139423      -67.736099      -17.384251
 H         -25.775425      -69.100349      -19.705597
 H         -26.433994      -67.509682      -20.127224
