20
 generated by VMD
 C         -11.113911      -32.791367       -8.746635
 N         -11.892695      -33.045517       -9.533374
 H         -12.200330      -33.787891       -6.592803
 H         -12.570584      -34.045010       -4.934914
 C         -12.393944      -34.591400       -5.839362
 C         -11.141472      -35.477806       -5.658140
 C         -13.573871      -35.350712       -6.358585
 C         -11.481140      -36.868160       -5.022751
 C         -13.844117      -36.657402       -5.661638
 C         -12.675778      -37.577606       -5.713376
 H         -10.331653      -34.984894       -5.129406
 H         -10.799242      -35.586926       -6.686185
 H         -14.484219      -34.752697       -6.336081
 H         -13.399364      -35.506081       -7.476866
 H         -11.680067      -36.739399       -3.949092
 H         -10.578276      -37.502697       -5.144879
 H         -14.775490      -37.171356       -6.108196
 H         -14.097440      -36.406731       -4.655752
 H         -12.919691      -38.544106       -5.345524
 H         -12.383933      -37.659718       -6.750458
