20
 generated by VMD
 C         -12.812087      -30.109619       -8.363644
 N         -13.805897      -30.583078       -8.564109
 H         -10.954729      -30.824570       -5.095768
 H         -10.875235      -31.705362       -3.483632
 C         -10.826839      -31.785410       -4.520239
 C          -9.464131      -32.374954       -4.964823
 C         -11.905388      -32.722881       -4.872037
 C          -9.187515      -33.700497       -4.204299
 C         -11.752703      -34.080475       -4.149295
 C         -10.318751      -34.677521       -4.608617
 H          -8.702235      -31.715370       -4.702324
 H          -9.338514      -32.530205       -6.073593
 H         -12.866277      -32.290104       -4.534449
 H         -11.995322      -32.948494       -5.943513
 H          -9.147003      -33.500229       -3.085952
 H          -8.202357      -34.164177       -4.469736
 H         -12.605201      -34.790508       -4.415477
 H         -11.883630      -33.895996       -3.094146
 H         -10.200256      -35.669624       -4.077408
 H         -10.305316      -34.810734       -5.698799
