20
 generated by VMD
 C          -9.298716      -24.503750        1.199756
 N          -9.726350      -25.333771        1.791630
 H          -6.883546      -23.198339       -0.655458
 H          -8.466877      -22.578537       -1.526828
 C          -7.422566      -22.978409       -1.650122
 C          -7.477726      -24.321318       -2.488468
 C          -6.613065      -21.923677       -2.374322
 C          -7.962075      -24.060921       -3.988989
 C          -7.084168      -21.750540       -3.803263
 C          -7.023826      -23.031660       -4.604169
 H          -8.065096      -25.085106       -1.931664
 H          -6.560702      -24.870966       -2.589565
 H          -6.661430      -20.952742       -1.901826
 H          -5.554536      -22.242975       -2.334275
 H          -9.015534      -23.693323       -4.059582
 H          -8.055569      -25.033064       -4.605497
 H          -6.494906      -21.017380       -4.363072
 H          -8.130472      -21.330399       -3.771736
 H          -7.360162      -22.854918       -5.584949
 H          -5.979304      -23.377285       -4.566254
