20
 generated by VMD
 C         -40.084587     -100.311966      -30.322624
 N         -40.756599     -100.348526      -31.267193
 H         -37.368191     -102.267654      -30.588337
 H         -39.357533     -100.161346      -29.479355
 C         -36.656719     -101.492035      -30.917280
 C         -36.608295     -100.946083      -32.264614
 C         -35.335236     -101.232880      -30.105030
 C         -36.070770      -99.442505      -32.306717
 C         -34.936207      -99.723022      -29.921062
 C         -34.699303      -99.269135      -31.519611
 H         -37.555325     -100.983376      -32.868755
 H         -35.895477     -101.511559      -32.845314
 H         -35.519642     -101.789528      -29.119310
 H         -34.430641     -101.667038      -30.598188
 H         -36.766041      -98.731903      -31.788755
 H         -36.069492      -99.098053      -33.369705
 H         -34.065250      -99.687363      -29.351664
 H         -35.775646      -99.212555      -29.385042
 H         -34.313564      -98.209549      -31.399084
 H         -33.988384      -99.857735      -32.110039
