20
 generated by VMD
 C          -1.910521       -8.681880       -0.549111
 N          -2.096557       -7.964447        0.318179
 H          -3.397982       -9.444127        2.652036
 H          -1.862289      -10.370333        2.878608
 C          -2.969649      -10.384925        3.007430
 C          -3.647367      -11.463805        2.088821
 C          -3.305797      -10.533902        4.534021
 C          -3.465888      -12.875114        2.658893
 C          -3.043956      -11.979243        4.946026
 C          -3.816845      -13.033142        4.118293
 H          -3.097846      -11.441873        1.107848
 H          -4.683623      -11.185082        1.941181
 H          -2.640916       -9.875741        5.016339
 H          -4.348674      -10.336297        4.737909
 H          -2.381573      -13.010839        2.526132
 H          -3.965872      -13.553422        1.932095
 H          -3.332554      -12.219707        5.958692
 H          -1.992488      -12.212412        4.869932
 H          -3.536589      -14.053984        4.443646
 H          -4.889253      -12.828727        4.328046
