20
 generated by VMD
 C         -59.669800     -152.402649      -51.021797
 N         -60.530033     -153.126450      -50.921249
 H         -56.882683     -151.945602      -48.892109
 H         -58.885155     -151.626648      -51.052376
 C         -56.035294     -151.648438      -49.478619
 C         -54.998688     -152.667618      -49.695103
 C         -55.730286     -150.157013      -49.522602
 C         -54.141994     -152.107941      -50.882915
 C         -55.116383     -149.778366      -50.804276
 C         -53.777363     -150.590332      -51.051159
 H         -55.637436     -153.453308      -50.176159
 H         -54.446552     -152.993210      -48.867962
 H         -56.596714     -149.624405      -49.100399
 H         -55.001328     -149.978455      -48.686424
 H         -54.671375     -152.427292      -51.759991
 H         -53.161434     -152.637024      -50.771023
 H         -54.980759     -148.753860      -50.677364
 H         -55.788555     -149.723419      -51.742329
 H         -53.419739     -150.270004      -52.007275
 H         -53.135040     -150.236893      -50.178471
