20
 generated by VMD
 C         -59.427994     -158.002762      -56.234028
 N         -58.934235     -158.673126      -57.043118
 H         -60.477371     -157.789948      -53.449760
 H         -59.909874     -157.341217      -55.550968
 C         -60.006775     -158.599594      -52.847832
 C         -58.498718     -158.440857      -52.473160
 C         -60.441730     -160.111954      -53.144096
 C         -57.975616     -159.576675      -51.649639
 C         -59.969994     -161.110229      -52.068935
 C         -58.466709     -161.005234      -51.962437
 H         -58.371708     -157.443893      -51.942432
 H         -57.918442     -158.224243      -53.373756
 H         -61.549278     -160.084061      -53.343544
 H         -59.925571     -160.407227      -54.125996
 H         -58.269295     -159.257538      -50.591782
 H         -56.879368     -159.656952      -51.662716
 H         -60.049362     -162.198959      -52.410809
 H         -60.651806     -160.951096      -51.253395
 H         -58.051216     -161.721817      -51.296825
 H         -57.948193     -161.172073      -52.873260
