20
 generated by VMD
 C          -7.631706      -23.549809        1.987412
 N          -7.600412      -23.105726        3.017978
 H          -9.042894      -23.517439       -1.678798
 H          -9.522651      -22.470961       -3.006052
 C          -8.656743      -22.826687       -2.436339
 C          -7.787270      -23.683065       -3.313947
 C          -7.820733      -21.815376       -1.753059
 C          -6.908226      -22.805189       -4.273473
 C          -7.013356      -20.871689       -2.661905
 C          -6.132671      -21.674252       -3.586886
 H          -8.480383      -24.408680       -3.849382
 H          -7.060807      -24.167025       -2.717807
 H          -8.412808      -21.188663       -1.031136
 H          -7.225504      -22.379826       -1.033551
 H          -7.614687      -22.351471       -4.989509
 H          -6.266473      -23.468687       -4.872469
 H          -6.474447      -20.136242       -2.037735
 H          -7.702447      -20.202425       -3.190734
 H          -5.647337      -21.049622       -4.322313
 H          -5.317400      -22.101229       -3.052518
