20
 generated by VMD
 C         -66.329163     -177.931793      -56.922493
 N         -67.462715     -177.718460      -57.013187
 H         -64.515282     -176.110855      -59.335812
 H         -65.299744     -178.118256      -56.694450
 C         -64.309509     -174.985367      -59.414719
 C         -65.474388     -174.132034      -59.157063
 C         -63.321285     -174.501465      -60.465946
 C         -65.275162     -172.594559      -59.227741
 C         -63.050999     -172.986267      -60.294106
 C         -64.315086     -172.174164      -60.368332
 H         -65.999428     -174.434189      -58.283642
 H         -66.118591     -174.410629      -60.053894
 H         -62.423958     -175.139832      -60.300694
 H         -63.655712     -174.786743      -61.480740
 H         -64.748421     -172.243210      -58.371391
 H         -66.247948     -172.133911      -59.347897
 H         -62.290371     -172.762558      -61.117733
 H         -62.631905     -172.641205      -59.409809
 H         -64.108467     -171.188431      -59.983196
 H         -64.894684     -172.082855      -61.294590
