20
 generated by VMD
 C         -47.914181     -125.143898      -38.960766
 N         -47.381741     -126.077621      -38.584122
 H         -45.813019     -123.126251      -37.821316
 H         -48.293976     -124.142708      -39.045345
 C         -45.418758     -123.153542      -38.844563
 C         -44.262096     -123.960121      -39.345055
 C         -45.578945     -121.890182      -39.755249
 C         -44.526531     -124.400841      -40.867500
 C         -45.902447     -122.232254      -41.126156
 C         -44.788940     -123.193100      -41.716953
 H         -44.262211     -124.775391      -38.732582
 H         -43.252220     -123.485626      -39.214153
 H         -46.348358     -121.232376      -39.238976
 H         -44.648415     -121.395935      -39.702087
 H         -45.309349     -125.211655      -41.014576
 H         -43.482239     -124.664856      -41.188396
 H         -45.908489     -121.235016      -41.779236
 H         -46.932957     -122.772408      -41.132408
 H         -45.184685     -123.527206      -42.627968
 H         -43.858814     -122.681534      -41.948376
