20
 generated by VMD
 C         -67.724991     -179.516632      -58.714306
 N         -68.117264     -179.715714      -59.797707
 H         -67.305199     -176.597260      -59.646610
 H         -67.456306     -179.308502      -57.688393
 C         -66.386993     -176.686722      -60.105854
 C         -66.090187     -176.077118      -61.440891
 C         -65.247978     -177.192749      -59.280159
 C         -65.054993     -174.979538      -61.210739
 C         -64.273743     -176.065613      -59.126675
 C         -63.875298     -175.585266      -60.478134
 H         -66.989876     -175.717773      -61.912159
 H         -65.782600     -176.945450      -62.056744
 H         -65.557701     -177.535706      -58.247643
 H         -64.885063     -178.076141      -59.820900
 H         -65.534531     -174.159821      -60.626129
 H         -64.658417     -174.449951      -62.026180
 H         -63.442734     -176.372528      -58.519733
 H         -64.682877     -175.154724      -58.685101
 H         -63.177509     -174.767807      -60.319641
 H         -63.235348     -176.330673      -60.905277
