20
 generated by VMD
 C         -60.738682     -153.307739      -52.260006
 N         -60.617455     -152.788559      -51.246094
 H         -57.436302     -153.923706      -50.237900
 H         -60.823666     -153.678802      -53.240089
 C         -56.545437     -153.361115      -50.458591
 C         -55.435501     -153.488235      -49.458035
 C         -56.633720     -152.080353      -51.158672
 C         -54.006004     -153.062851      -50.067745
 C         -55.244278     -151.628632      -51.593594
 C         -54.129707     -151.618500      -50.485802
 H         -55.213657     -154.443222      -49.063293
 H         -55.750431     -152.793716      -48.715122
 H         -57.340374     -152.141556      -52.015728
 H         -57.061470     -151.286011      -50.514088
 H         -53.852718     -153.651840      -50.986008
 H         -53.142445     -153.088333      -49.410728
 H         -55.197636     -150.553665      -51.900780
 H         -54.978710     -152.088455      -52.460739
 H         -53.154068     -151.385849      -50.934120
 H         -54.361897     -150.942078      -49.629990
