20
 generated by VMD
 C         -58.822453     -158.903534      -58.050983
 N         -58.584133     -159.917343      -57.542332
 H         -58.787395     -160.960403      -54.631752
 H         -59.030327     -157.983582      -58.552555
 C         -59.439884     -161.501465      -53.954815
 C         -58.797626     -161.868134      -52.590828
 C         -60.795448     -161.970566      -54.374073
 C         -59.795307     -161.561981      -51.511475
 C         -61.655708     -161.917358      -53.153397
 C         -61.073513     -162.300980      -51.778492
 H         -57.940411     -161.185913      -52.355247
 H         -58.497097     -162.859741      -52.558167
 H         -61.197197     -161.336624      -55.216217
 H         -60.655735     -163.051300      -54.817432
 H         -59.937981     -160.484985      -51.346409
 H         -59.269623     -162.056992      -50.613365
 H         -62.547829     -162.501938      -53.364574
 H         -62.107460     -160.968033      -52.948692
 H         -61.886127     -162.129120      -50.980808
 H         -60.815365     -163.356689      -51.946556
