20
 generated by VMD
 C         -22.737347      -52.431252      -12.002042
 N         -23.693823      -52.429111      -11.396535
 H         -19.921091      -53.626743      -14.390166
 H         -21.977749      -52.492847      -12.636748
 C         -18.850918      -53.406540      -14.152766
 C         -18.262222      -52.101902      -14.525526
 C         -18.098211      -54.398930      -13.259823
 C         -16.752867      -52.226917      -14.490052
 C         -17.071060      -53.714203      -12.393939
 C         -16.296461      -52.570740      -13.093026
 H         -18.492132      -51.272247      -13.879737
 H         -18.622854      -51.927338      -15.596672
 H         -18.913614      -54.919903      -12.679188
 H         -17.628130      -55.187962      -13.812153
 H         -16.254438      -51.296181      -14.768316
 H         -16.451023      -52.965046      -15.215511
 H         -16.400988      -54.464455      -11.950757
 H         -17.572292      -53.223225      -11.548409
 H         -16.284016      -51.695763      -12.367785
 H         -15.211414      -52.852371      -13.119380
