20
 generated by VMD
 C         -69.667763     -180.212570      -61.680096
 N         -69.304565     -181.003311      -62.427074
 H         -66.627663     -180.158752      -59.141891
 H         -70.081665     -179.435181      -61.101254
 C         -66.198792     -179.396652      -59.718952
 C         -65.342308     -179.664810      -60.884506
 C         -66.019196     -178.226501      -58.865742
 C         -65.348312     -178.414169      -61.764786
 C         -65.693512     -176.965103      -59.644833
 C         -64.910088     -177.127365      -61.007530
 H         -65.807663     -180.559433      -61.296398
 H         -64.324989     -179.936050      -60.567551
 H         -66.943565     -178.070023      -58.349651
 H         -65.277336     -178.271515      -58.056885
 H         -66.294968     -178.344604      -62.268955
 H         -64.517372     -178.588867      -62.485146
 H         -65.293053     -176.215714      -58.914932
 H         -66.616722     -176.426697      -59.888649
 H         -64.962921     -176.132263      -61.450691
 H         -63.982052     -177.233887      -60.527222
