20
 generated by VMD
 C         -57.908890     -164.585022      -56.594135
 N         -57.267746     -163.865967      -57.163834
 H         -60.029125     -164.414368      -53.924980
 H         -58.627258     -165.201401      -56.057167
 C         -60.912949     -164.860809      -54.509159
 C         -61.859703     -165.868408      -53.844193
 C         -61.327450     -164.310822      -55.853088
 C         -63.345844     -165.378693      -53.981113
 C         -62.882641     -163.912369      -55.951065
 C         -63.727093     -164.948456      -55.354698
 H         -61.582092     -165.955521      -52.773834
 H         -61.843884     -166.789246      -54.456352
 H         -60.657394     -163.511139      -56.229523
 H         -61.306709     -165.060577      -56.597374
 H         -63.515259     -164.694031      -53.160969
 H         -64.042404     -166.135361      -53.548313
 H         -63.098495     -163.681549      -57.077770
 H         -62.913998     -163.047302      -55.333347
 H         -64.834755     -164.559372      -55.415943
 H         -63.762394     -165.919754      -55.993874
