20
 generated by VMD
 C          -2.199638      -16.881149        2.843042
 N          -2.389081      -16.252542        1.938227
 H          -4.491910      -15.730415        0.128688
 H          -4.429213      -17.116724       -0.996367
 C          -5.060560      -16.570698       -0.273978
 C          -6.278675      -16.040567       -0.980426
 C          -5.400444      -17.618744        0.817486
 C          -7.352265      -17.013540       -1.338255
 C          -6.346714      -18.675707        0.258977
 C          -7.667592      -17.896996       -0.113584
 H          -6.016262      -15.495354       -1.916840
 H          -6.738474      -15.317042       -0.327825
 H          -4.454722      -18.040062        1.195096
 H          -5.943008      -17.006161        1.593444
 H          -7.248896      -17.623552       -2.304114
 H          -8.211887      -16.362705       -1.540252
 H          -6.561228      -19.355293        1.138336
 H          -5.988287      -19.300287       -0.558743
 H          -8.459836      -18.558994       -0.434635
 H          -8.119978      -17.397135        0.756976
