20
 generated by VMD
 C         -61.423828     -154.712921      -53.852554
 N         -61.847725     -155.192429      -52.942577
 H         -58.022701     -154.726425      -52.430607
 H         -60.919559     -154.231369      -54.667564
 C         -57.137764     -154.678238      -51.786789
 C         -57.337223     -154.199173      -50.330135
 C         -55.883640     -154.286118      -52.466755
 C         -56.055016     -154.648849      -49.541100
 C         -54.745819     -154.705811      -51.572456
 C         -54.803066     -154.243439      -50.114098
 H         -58.225964     -154.746445      -50.026428
 H         -57.315784     -153.126907      -50.251396
 H         -55.795841     -154.961166      -53.360950
 H         -55.857666     -153.263397      -52.826305
 H         -55.861904     -155.663651      -49.545509
 H         -56.146591     -154.249161      -48.560699
 H         -53.840183     -154.268845      -52.076069
 H         -54.576355     -155.732941      -51.560017
 H         -53.873924     -154.687531      -49.704708
 H         -54.814651     -153.122177      -50.105560
