20
 generated by VMD
 C         -38.289822     -110.400955      -36.121815
 N         -37.751278     -109.374763      -36.303272
 H         -40.087196     -113.667290      -35.856419
 H         -38.640194     -111.463486      -36.258224
 C         -41.090134     -113.130142      -35.924511
 C         -42.245586     -113.840477      -36.656879
 C         -41.511314     -111.982414      -35.036228
 C         -43.403099     -114.187820      -35.742466
 C         -42.686451     -112.467560      -34.147736
 C         -43.807789     -112.975899      -34.962540
 H         -41.840889     -114.696548      -37.198952
 H         -42.664936     -113.063126      -37.415867
 H         -40.630352     -111.689720      -34.386398
 H         -41.772488     -111.184578      -35.730988
 H         -43.245140     -115.250824      -35.232529
 H         -44.262535     -114.464096      -36.340187
 H         -43.004738     -111.688004      -33.531651
 H         -42.383900     -113.234421      -33.485508
 H         -44.746380     -113.157936      -34.276321
 H         -44.133369     -112.117332      -35.580235
