20
 generated by VMD
 C         -68.350426     -185.341278      -67.521156
 N         -67.625984     -185.296616      -66.616730
 H         -69.216248     -186.894058      -64.777634
 H         -68.963593     -185.493103      -68.395203
 C         -69.650665     -186.831360      -63.812416
 C         -70.321449     -185.510101      -63.335320
 C         -69.625053     -188.042709      -62.949856
 C         -70.058563     -185.229218      -61.864525
 C         -69.190544     -187.668320      -61.562046
 C         -69.965363     -186.520264      -61.013363
 H         -71.343269     -185.698639      -63.360012
 H         -70.015541     -184.616653      -63.847904
 H         -70.586868     -188.491852      -62.917442
 H         -68.766640     -188.550919      -63.417301
 H         -70.811081     -184.598206      -61.424934
 H         -69.056175     -184.740295      -61.830681
 H         -68.103622     -187.380920      -61.732674
 H         -69.118118     -188.479858      -60.852974
 H         -70.920013     -186.723511      -60.812363
 H         -69.583603     -186.327621      -60.029701
