20
 generated by VMD
 C         -50.778610     -129.595062      -45.924320
 N         -50.927116     -130.527328      -45.218605
 H         -48.302029     -131.416153      -44.198139
 H         -50.613483     -128.931595      -46.773827
 C         -48.020672     -131.319305      -43.209461
 C         -48.323936     -132.596848      -42.411648
 C         -47.970299     -130.078278      -42.331127
 C         -47.433773     -132.656952      -41.140331
 C         -47.057922     -130.289413      -41.178955
 C         -47.407360     -131.457108      -40.326096
 H         -48.307117     -133.432541      -43.157551
 H         -49.402782     -132.621780      -42.042629
 H         -47.586300     -129.248383      -42.995132
 H         -49.060322     -129.824356      -41.935749
 H         -46.466423     -132.873627      -41.564884
 H         -47.676022     -133.540527      -40.553730
 H         -47.159256     -129.387299      -40.510426
 H         -45.992348     -130.406921      -41.484726
 H         -46.561192     -131.480499      -39.609653
 H         -48.320618     -131.264618      -39.686382
