20
 generated by VMD
 C         -49.826004     -141.615555      -45.313072
 N         -49.446625     -142.735901      -45.201889
 H         -51.695347     -138.991364      -45.889420
 H         -50.118214     -140.545746      -45.446548
 C         -52.228165     -139.836212      -46.425945
 C         -52.361546     -140.010300      -47.922020
 C         -53.319889     -140.429626      -45.450069
 C         -53.087944     -141.337524      -48.340118
 C         -53.693535     -141.812500      -45.974541
 C         -54.243488     -141.774139      -47.390125
 H         -51.306168     -139.957748      -48.298271
 H         -53.014103     -139.256622      -48.335598
 H         -52.881519     -140.445755      -44.417068
 H         -53.935627     -139.575912      -45.434834
 H         -52.330612     -142.070297      -48.244572
 H         -53.547646     -141.195724      -49.253452
 H         -54.505283     -142.357132      -45.328560
 H         -52.760464     -142.461761      -45.876190
 H         -54.395370     -142.781250      -47.575302
 H         -55.118198     -141.140549      -47.421589
