20
 generated by VMD
 C         -31.743492      -78.830009      -26.425426
 N         -31.020662      -78.042969      -26.937723
 H         -29.062561      -80.540085      -25.007994
 H         -32.232571      -79.734619      -26.208899
 C         -28.853556      -81.133751      -24.135784
 C         -27.617884      -81.003410      -23.312622
 C         -29.948135      -82.044724      -23.748228
 C         -27.988497      -81.184814      -21.744606
 C         -30.087627      -82.130066      -22.245756
 C         -28.763950      -82.365532      -21.527029
 H         -27.200451      -80.035988      -23.328949
 H         -26.725397      -81.590340      -23.566351
 H         -30.872646      -81.632294      -24.187712
 H         -29.918911      -83.088135      -24.145018
 H         -28.585264      -80.272949      -21.385248
 H         -27.089758      -81.178879      -21.085728
 H         -30.755657      -82.889259      -22.043003
 H         -30.389050      -81.191933      -21.726925
 H         -29.029638      -82.294456      -20.479404
 H         -28.243851      -83.221931      -21.882973
