20
 generated by VMD
 C         -45.716003     -123.686958      -35.512268
 N         -46.285690     -124.676971      -35.429241
 H         -44.758915     -121.991562      -38.102806
 H         -45.208176     -122.817886      -35.727524
 C         -44.665302     -121.656563      -39.089222
 C         -43.343449     -121.364220      -39.686371
 C         -45.852821     -120.679153      -39.515800
 C         -43.434101     -121.269272      -41.181854
 C         -45.832706     -120.525864      -41.013119
 C         -44.486332     -120.259331      -41.596268
 H         -42.671490     -122.163116      -39.403465
 H         -43.144421     -120.381317      -39.231739
 H         -46.951992     -120.893654      -39.283928
 H         -45.588577     -119.747192      -39.061100
 H         -43.818481     -122.226578      -41.556843
 H         -42.508884     -120.976799      -41.536449
 H         -46.546608     -119.802704      -41.305855
 H         -46.155857     -121.452904      -41.420223
 H         -44.538338     -120.073318      -42.649227
 H         -44.115929     -119.254784      -41.256615
