20
 generated by VMD
 C         -49.313633     -132.479279      -46.824211
 N         -50.307182     -131.909485      -47.168045
 H         -47.371136     -134.257492      -43.899612
 H         -48.520546     -132.989075      -46.216309
 C         -48.375477     -134.534302      -43.528141
 C         -49.086594     -135.846603      -43.890381
 C         -49.287857     -133.438507      -43.076927
 C         -49.947636     -136.316940      -42.716747
 C         -50.094467     -133.829712      -41.899239
 C         -50.817127     -135.219635      -42.110390
 H         -48.401192     -136.624329      -44.197819
 H         -49.788334     -135.598770      -44.788868
 H         -48.753983     -132.587433      -42.779839
 H         -49.868778     -133.198044      -43.984814
 H         -49.195793     -136.683456      -41.933552
 H         -50.528728     -137.250198      -42.903301
 H         -50.852425     -133.006302      -41.800579
 H         -49.588387     -133.862762      -40.933880
 H         -51.173000     -135.637833      -41.211777
 H         -51.575127     -135.031921      -42.882439
