20
 generated by VMD
 C         -58.941444     -151.958389      -49.000732
 N         -59.050858     -152.207260      -50.145798
 H         -56.349388     -150.426697      -48.210190
 H         -58.667419     -151.753143      -47.951145
 C         -55.712601     -150.210953      -49.122173
 C         -54.722916     -151.278610      -49.669693
 C         -55.310158     -148.844543      -49.146999
 C         -54.140865     -150.783249      -51.035782
 C         -54.884468     -148.374908      -50.591663
 C         -53.608051     -149.281128      -51.018383
 H         -55.261261     -152.252823      -49.777504
 H         -54.047722     -151.282425      -48.893711
 H         -56.074516     -148.121872      -48.888523
 H         -54.397984     -148.645782      -48.515079
 H         -55.007080     -150.850357      -51.684052
 H         -53.393192     -151.447113      -51.544060
 H         -54.507259     -147.274399      -50.500214
 H         -55.666950     -148.301697      -51.280792
 H         -53.270798     -148.998734      -52.032124
 H         -52.762577     -149.221420      -50.299568
