20
 generated by VMD
 C         -79.292023     -209.376617      -76.185463
 N         -79.381149     -209.313171      -77.340492
 H         -78.051163     -208.853607      -72.582314
 H         -79.193390     -209.218872      -75.147842
 C         -77.956718     -209.901123      -72.297096
 C         -76.935516     -210.388351      -71.395638
 C         -78.913879     -210.932541      -72.806160
 C         -77.615112     -211.167984      -70.136230
 C         -79.648087     -211.582031      -71.516151
 C         -78.650101     -212.158295      -70.512878
 H         -76.422150     -209.578400      -70.857758
 H         -76.086739     -210.894943      -71.991219
 H         -79.806313     -210.525223      -73.345840
 H         -78.468498     -211.699951      -73.482094
 H         -78.014168     -210.477875      -69.372322
 H         -76.766960     -211.606232      -69.595512
 H         -80.360825     -212.376724      -71.812111
 H         -80.218887     -210.725433      -70.990692
 H         -79.196739     -212.547714      -69.651436
 H         -78.070328     -212.962341      -70.949936
