20
 generated by VMD
 C         -70.406731     -181.211349      -63.856068
 N         -70.892540     -182.123062      -63.331741
 H         -68.084099     -181.496292      -60.958256
 H         -69.973457     -180.331116      -64.223236
 C         -67.191917     -180.827682      -60.806931
 C         -65.993271     -181.597214      -60.501839
 C         -67.308182     -179.367355      -60.491257
 C         -64.657433     -180.755966      -60.694962
 C         -66.081497     -178.576553      -60.906116
 C         -64.869919     -179.290146      -60.248981
 H         -66.104958     -182.553680      -61.149574
 H         -66.066559     -181.961792      -59.461243
 H         -68.287407     -179.090714      -61.007126
 H         -67.486847     -179.227066      -59.453518
 H         -64.536484     -180.752151      -61.731613
 H         -63.826771     -181.191437      -60.162109
 H         -66.167114     -177.476166      -60.692219
 H         -65.889145     -178.581589      -61.992863
 H         -63.979389     -178.730896      -60.736282
 H         -64.882065     -179.322174      -59.193909
