20
 generated by VMD
 C         -49.310745     -141.313354      -45.761909
 N         -48.718266     -141.565674      -44.837982
 H         -51.663925     -138.370239      -46.044163
 H         -49.863342     -140.906540      -46.589432
 C         -52.174862     -139.284119      -46.296459
 C         -52.790661     -139.438599      -47.759392
 C         -52.850822     -139.991043      -45.139019
 C         -53.234367     -140.842682      -48.062000
 C         -53.249397     -141.355209      -45.573906
 C         -54.170414     -141.352524      -46.909981
 H         -52.085812     -139.057983      -48.574043
 H         -53.699142     -138.826874      -47.782265
 H         -52.067493     -140.049744      -44.333324
 H         -53.739269     -139.267441      -44.801422
 H         -52.338440     -141.376740      -48.009342
 H         -53.632008     -141.027176      -49.070744
 H         -53.893169     -141.876801      -44.782001
 H         -52.337826     -141.954117      -45.723778
 H         -54.445244     -142.416901      -47.087772
 H         -55.040592     -140.733276      -46.855682
