20
 generated by VMD
 C         -29.619333      -88.402969      -25.896383
 N         -29.306393      -89.018173      -24.972086
 H         -31.361956      -90.020172      -27.711718
 H         -29.739214      -87.760033      -26.822920
 C         -32.374653      -89.789803      -27.486448
 C         -33.013451      -89.910683      -26.107965
 C         -33.258034      -89.433060      -28.577747
 C         -33.785244      -88.700500      -25.820303
 C         -34.055214      -88.111023      -28.332590
 C         -34.765053      -88.336212      -26.958412
 H         -32.244179      -89.957314      -25.275206
 H         -33.674736      -90.763115      -26.207647
 H         -32.689468      -89.475639      -29.531666
 H         -34.108257      -90.201920      -28.712563
 H         -33.154575      -87.912239      -25.684109
 H         -34.373314      -88.627197      -24.909216
 H         -34.697723      -87.718422      -29.163109
 H         -33.236061      -87.348206      -28.239176
 H         -35.324711      -87.434372      -26.774866
 H         -35.490589      -89.185715      -27.140856
