20
 generated by VMD
 C         -57.931240     -164.585449      -56.587959
 N         -57.250423     -163.821274      -57.176304
 H         -60.151669     -164.378265      -53.971043
 H         -58.646385     -165.205170      -56.090221
 C         -60.933651     -164.821655      -54.470856
 C         -61.839603     -165.889557      -53.859619
 C         -61.326656     -164.328537      -55.870773
 C         -63.328629     -165.361420      -53.955181
 C         -62.854328     -163.938904      -55.983582
 C         -63.779434     -164.930283      -55.324814
 H         -61.603451     -166.083893      -52.827423
 H         -61.735249     -166.838257      -54.391865
 H         -60.611488     -163.497192      -56.147968
 H         -61.044701     -165.201752      -56.578781
 H         -63.411041     -164.438095      -53.264988
 H         -64.025146     -166.053711      -53.497631
 H         -63.030922     -163.556427      -57.011360
 H         -62.912254     -163.044937      -55.306572
 H         -64.729950     -164.572449      -55.313980
 H         -63.788437     -165.718140      -55.989304
