20
 generated by VMD
 C         -35.165310      -97.791023      -25.751133
 N         -35.891483      -97.497841      -26.620367
 H         -35.619171      -95.133598      -27.810715
 H         -34.451839      -97.980644      -24.892942
 C         -35.305477      -94.829720      -28.796768
 C         -35.866970      -95.696060      -29.972818
 C         -34.012123      -94.038780      -28.932535
 C         -35.632591      -94.947784      -31.340919
 C         -33.883587      -93.607796      -30.402046
 C         -34.165318      -94.573494      -31.554083
 H         -36.924660      -95.923508      -30.019169
 H         -35.368011      -96.726746      -30.001268
 H         -34.116409      -93.285660      -28.154346
 H         -33.163288      -94.663307      -28.666752
 H         -36.269749      -94.094048      -31.475567
 H         -35.813950      -95.624763      -32.201748
 H         -32.884762      -93.219299      -30.627527
 H         -34.462036      -92.698875      -30.513342
 H         -34.049839      -93.992973      -32.506573
 H         -33.387371      -95.542274      -31.533220
