20
 generated by VMD
 C         -60.914017     -155.133575      -52.959049
 N         -60.899364     -154.202362      -52.179394
 H         -57.939972     -154.375519      -52.723305
 H         -60.841438     -155.931915      -53.687904
 C         -57.147728     -154.158447      -52.008587
 C         -57.348267     -154.131424      -50.545979
 C         -55.828354     -153.699219      -52.493725
 C         -56.273739     -154.583420      -49.651020
 C         -54.651867     -154.123932      -51.568275
 C         -55.030895     -153.764709      -50.145882
 H         -58.288723     -154.632629      -50.330597
 H         -57.663780     -153.121918      -50.365334
 H         -55.647419     -154.168884      -53.454929
 H         -55.784283     -152.586731      -52.622089
 H         -56.177704     -155.625275      -49.822895
 H         -56.323112     -154.315125      -48.582596
 H         -53.768581     -153.550171      -51.779076
 H         -54.443848     -155.193909      -51.706261
 H         -54.171108     -153.976135      -49.384628
 H         -55.015182     -152.715561      -50.100124
