20
 generated by VMD
 C          -1.138605      -10.832274        0.889121
 N          -1.398605       -9.801215        1.167611
 H          -3.557356      -12.674072        0.644114
 H          -4.577070      -12.106060        2.030945
 C          -4.211198      -13.021599        1.452054
 C          -3.381250      -14.005302        2.250109
 C          -5.385439      -13.726489        0.754491
 C          -4.163455      -14.666074        3.282282
 C          -6.223868      -14.521828        1.781067
 C          -5.316401      -15.401054        2.688281
 H          -2.485943      -13.416016        2.724051
 H          -2.970568      -14.742507        1.513079
 H          -5.929751      -13.004714        0.156629
 H          -4.967530      -14.350222       -0.029004
 H          -4.547771      -13.817032        3.927497
 H          -3.545480      -15.408479        3.919804
 H          -7.022337      -15.094643        1.259002
 H          -6.702865      -13.776699        2.413171
 H          -5.884829      -15.926363        3.409310
 H          -4.885882      -16.103550        2.017135
