20
 generated by VMD
 C         -56.237171     -149.386795      -45.972744
 N         -56.149075     -150.434082      -45.414917
 H         -53.963123     -148.053787      -47.803181
 H         -56.109695     -148.464615      -46.526691
 C         -53.906910     -147.390045      -48.617020
 C         -53.122063     -147.626999      -49.906090
 C         -54.720768     -146.154755      -48.587601
 C         -53.596745     -147.030075      -51.168072
 C         -55.256382     -145.657501      -49.882500
 C         -54.289188     -145.732208      -51.010715
 H         -52.832573     -148.664337      -50.045979
 H         -52.067326     -147.284821      -49.737579
 H         -55.568844     -146.204544      -47.864609
 H         -54.027645     -145.392899      -48.098061
 H         -54.254162     -147.634918      -51.830284
 H         -52.694424     -146.736847      -51.840828
 H         -55.700016     -144.584167      -49.692924
 H         -55.949532     -146.408890      -50.099617
 H         -54.866123     -145.497437      -51.896332
 H         -53.530338     -144.931580      -50.965431
