20
 generated by VMD
 C         -79.014343     -206.726364      -75.412361
 N         -79.565285     -207.090744      -76.324104
 H         -78.490799     -209.816299      -73.097321
 H         -78.434074     -206.527832      -74.508965
 C         -77.898209     -209.816010      -72.232742
 C         -76.755478     -208.854095      -71.953270
 C         -78.252052     -210.901886      -71.243683
 C         -76.688385     -208.313614      -70.619041
 C         -78.339722     -210.184769      -69.801224
 C         -76.880074     -209.474899      -69.514679
 H         -76.854874     -208.027603      -72.666367
 H         -75.812782     -209.365067      -72.180153
 H         -79.149086     -211.511826      -71.490105
 H         -77.462799     -211.687500      -71.213150
 H         -77.496071     -207.642715      -70.416656
 H         -75.730591     -207.834122      -70.537811
 H         -78.536026     -211.053162      -69.108826
 H         -79.136551     -209.510971      -69.701012
 H         -77.202164     -209.036331      -68.574440
 H         -75.959404     -210.116364      -69.404816
