20
 generated by VMD
 C         -15.419391      -47.613785       -6.199576
 N         -15.595356      -46.632481       -5.718299
 H         -16.580378      -47.119991       -9.972122
 H         -15.223222      -46.929214      -11.124444
 C         -16.256729      -46.734501      -10.917986
 C         -16.451300      -45.216358      -10.818906
 C         -17.095930      -47.373642      -11.991099
 C         -16.177479      -44.579891      -12.171543
 C         -16.930397      -46.596195      -13.335834
 C         -17.094873      -45.086857      -13.264447
 H         -15.711923      -44.752502      -10.114474
 H         -17.484840      -45.033543      -10.480886
 H         -16.802572      -48.427662      -12.174822
 H         -18.163355      -47.405151      -11.740859
 H         -15.106594      -44.677639      -12.413093
 H         -16.350298      -43.505367      -12.104104
 H         -17.447001      -47.154076      -14.101008
 H         -15.895137      -46.787235      -13.661348
 H         -16.860344      -44.535744      -14.233287
 H         -18.140554      -44.776920      -13.179942
