20
 generated by VMD
 C         -29.038157      -81.403816      -27.669390
 N         -29.798548      -80.545723      -27.534624
 H         -29.117456      -82.167168      -23.912977
 H         -28.406572      -82.181107      -27.855053
 C         -29.491947      -83.177170      -23.805077
 C         -29.818031      -83.807007      -22.381779
 C         -30.063646      -83.871483      -25.082775
 C         -31.273270      -83.962585      -22.284578
 C         -31.476982      -84.174683      -24.841923
 C         -31.958969      -84.640381      -23.475437
 H         -29.362623      -83.223434      -21.554861
 H         -29.363363      -84.817528      -22.362228
 H         -30.106228      -83.288406      -26.056911
 H         -29.427122      -84.775230      -25.182135
 H         -31.693146      -82.890594      -22.227667
 H         -31.488741      -84.377739      -21.327528
 H         -31.840582      -84.889191      -25.555534
 H         -32.124294      -83.228096      -24.971405
 H         -33.072025      -84.381950      -23.310438
 H         -31.814487      -85.720589      -23.529598
