20
 generated by VMD
 C         -49.182495     -127.174843      -39.634823
 N         -50.310421     -127.263931      -39.482948
 H         -46.964287     -127.146164      -42.641766
 H         -48.114140     -127.121132      -39.794655
 C         -46.414433     -126.527672      -41.830475
 C         -45.333115     -126.982460      -40.899429
 C         -46.555237     -124.907570      -42.013466
 C         -44.319496     -125.952599      -40.367523
 C         -45.450947     -124.065964      -41.463009
 C         -44.907001     -124.586510      -40.224403
 H         -44.843140     -127.872528      -41.270477
 H         -45.759651     -127.276100      -39.838573
 H         -46.707588     -124.676262      -43.102131
 H         -47.385178     -124.647202      -41.461075
 H         -43.537388     -125.937515      -41.091290
 H         -43.891392     -126.209229      -39.409721
 H         -45.831860     -123.072830      -41.380947
 H         -44.730793     -123.880684      -42.247772
 H         -44.090969     -123.928268      -39.790546
 H         -45.740631     -124.575623      -39.463863
