20
 generated by VMD
 C         -79.468582     -206.772644      -74.700089
 N         -80.117714     -207.677460      -74.318916
 H         -76.980759     -207.373047      -73.110153
 H         -78.754631     -206.124130      -75.194656
 C         -76.876427     -207.813797      -72.198433
 C         -75.669724     -207.411377      -71.476921
 C         -77.748932     -208.911331      -71.655441
 C         -75.678055     -207.591812      -70.013161
 C         -78.051567     -208.584625      -70.196526
 C         -76.740082     -208.516098      -69.376511
 H         -75.681961     -206.290771      -71.664848
 H         -74.668343     -207.734207      -71.786255
 H         -78.616837     -208.909195      -72.285889
 H         -77.342827     -209.932709      -71.716003
 H         -75.836739     -206.641098      -69.527855
 H         -74.784996     -207.948212      -69.521896
 H         -78.804062     -209.248001      -69.794014
 H         -78.539597     -207.623657      -70.376610
 H         -76.892502     -208.215439      -68.256165
 H         -76.269569     -209.476685      -69.136658
