20
 generated by VMD
 C         -49.719215     -133.169479      -47.036488
 N         -49.143997     -132.101013      -47.028706
 H         -47.926304     -134.303909      -44.412289
 H         -49.888908     -134.263107      -47.088566
 C         -48.788921     -134.708496      -43.819756
 C         -49.215759     -136.052841      -44.045551
 C         -49.745243     -133.742859      -43.146461
 C         -50.057880     -136.700867      -42.954468
 C         -50.549141     -134.315720      -42.017029
 C         -51.108845     -135.805420      -42.298321
 H         -48.307655     -136.773682      -44.195332
 H         -49.776882     -136.014618      -44.975384
 H         -49.242516     -132.861511      -42.691727
 H         -50.390491     -133.349808      -43.867481
 H         -49.498997     -136.881714      -42.057056
 H         -50.612202     -137.578705      -43.336231
 H         -51.305202     -133.559799      -41.758293
 H         -49.816704     -134.404373      -41.154480
 H         -51.808472     -136.160873      -41.492897
 H         -51.934395     -135.672623      -42.951694
