20
 generated by VMD
 C         -78.912865     -206.971710      -75.324409
 N         -79.778282     -207.053299      -76.149185
 H         -77.771576     -209.657608      -73.356468
 H         -78.154747     -207.100677      -74.619781
 C         -77.774635     -209.541687      -72.315453
 C         -76.656685     -208.666031      -71.927979
 C         -78.377136     -210.570938      -71.331268
 C         -76.644775     -208.270035      -70.480194
 C         -78.192543     -210.137711      -69.863777
 C         -76.839546     -209.468567      -69.447014
 H         -76.650482     -207.773941      -72.559341
 H         -75.728928     -209.159729      -72.104218
 H         -79.287628     -211.011292      -71.740593
 H         -77.574280     -211.360321      -71.360428
 H         -77.541115     -207.609680      -70.303452
 H         -75.748695     -207.743042      -70.126778
 H         -78.418007     -210.915100      -69.122017
 H         -78.969696     -209.319565      -69.707382
 H         -76.854256     -208.956360      -68.471764
 H         -76.173637     -210.318878      -69.339905
