20
 generated by VMD
 C         -66.852257     -189.970428      -66.935417
 N         -67.451378     -190.119781      -65.957069
 H         -70.415611     -190.668869      -66.317337
 H         -66.443085     -189.663712      -67.845810
 C         -71.171684     -190.357132      -65.545555
 C         -72.376839     -191.151428      -65.076073
 C         -70.424423     -189.429840      -64.539612
 C         -73.195328     -190.236908      -64.063210
 C         -71.512947     -188.490555      -64.015816
 C         -72.442757     -189.339233      -63.210445
 H         -72.275803     -192.158554      -64.645645
 H         -73.023621     -191.309479      -66.007263
 H         -69.899467     -190.056610      -63.773140
 H         -69.721230     -188.843277      -65.147423
 H         -73.836754     -190.900543      -63.422470
 H         -73.824615     -189.600204      -64.652557
 H         -72.025833     -188.099243      -64.857521
 H         -71.068588     -187.712418      -63.347919
 H         -72.002716     -189.889832      -62.381413
 H         -73.159660     -188.656586      -62.703629
