20
 generated by VMD
 C         -27.251308      -72.861145      -17.954399
 N         -27.978586      -73.338394      -17.230667
 H         -24.805687      -70.333549      -18.639866
 H         -26.430079      -72.291496      -18.572273
 C         -25.081430      -70.695610      -19.676624
 C         -24.474688      -71.950958      -20.199926
 C         -25.472313      -69.642258      -20.683496
 C         -25.269972      -72.405769      -21.490505
 C         -26.502205      -70.227249      -21.756229
 C         -25.925596      -71.474579      -22.442921
 H         -24.541552      -72.806793      -19.601208
 H         -23.432186      -71.810860      -20.512148
 H         -25.997244      -68.874207      -20.149063
 H         -24.673037      -69.123207      -21.186029
 H         -25.858114      -73.276817      -21.143349
 H         -24.479090      -72.909294      -22.081617
 H         -26.858784      -69.477982      -22.438332
 H         -27.475288      -70.485611      -21.406830
 H         -26.762253      -72.107773      -22.933378
 H         -25.236242      -71.043549      -23.218567
