20
 generated by VMD
 C         -22.401022      -67.621704      -16.142094
 N         -21.254158      -67.486084      -16.034946
 H         -23.776976      -65.761421      -17.958139
 H         -23.405191      -67.700478      -16.472187
 C         -24.494375      -66.331825      -18.546370
 C         -23.855965      -66.853325      -19.905569
 C         -25.964754      -66.427864      -18.549932
 C         -24.517672      -68.154297      -20.456800
 C         -26.413513      -67.864891      -18.892683
 C         -26.093599      -68.262321      -20.325377
 H         -22.755064      -67.066933      -19.742355
 H         -23.743843      -65.984528      -20.534821
 H         -26.356142      -66.211868      -17.506294
 H         -26.485378      -65.732742      -19.214724
 H         -24.206591      -69.008759      -19.864136
 H         -24.192411      -68.274773      -21.442135
 H         -27.513727      -67.746689      -18.776373
 H         -25.991528      -68.561150      -18.175652
 H         -26.369986      -69.269432      -20.683876
 H         -26.534130      -67.534889      -20.973375
