20
 generated by VMD
 C         -68.219833     -193.671021      -65.499069
 N         -68.174881     -194.815323      -65.184265
 H         -71.008537     -192.246765      -67.707863
 H         -68.348839     -192.606949      -65.684441
 C         -71.717880     -192.036850      -66.943527
 C         -72.017212     -190.759430      -66.300110
 C         -72.339012     -193.256912      -66.383850
 C         -73.524338     -190.681244      -66.222366
 C         -73.196365     -193.034760      -65.206337
 C         -74.153290     -191.919296      -65.439919
 H         -71.482323     -189.841629      -66.887749
 H         -71.539001     -190.759430      -65.362099
 H         -72.939034     -193.713669      -67.228874
 H         -71.737282     -194.116119      -66.128830
 H         -73.891602     -190.585205      -67.245392
 H         -73.635490     -189.715775      -65.731186
 H         -72.582100     -192.730057      -64.377785
 H         -73.728348     -193.968399      -64.847733
 H         -75.089119     -192.251816      -65.965927
 H         -74.481720     -191.602310      -64.506592
