20
 generated by VMD
 C         -10.751620      -37.149025       -8.471342
 N         -10.819655      -36.377251       -7.687630
 H         -13.442085      -37.337833       -7.617385
 H         -14.286036      -38.113026       -6.354667
 C         -13.941758      -38.247742       -7.398620
 C         -13.108985      -39.493111       -7.372850
 C         -15.086890      -38.269775       -8.337492
 C         -13.921647      -40.775379       -7.249241
 C         -15.863915      -39.605961       -8.216928
 C         -15.061593      -40.837307       -8.285452
 H         -12.451604      -39.491852       -6.485558
 H         -12.528644      -39.471535       -8.322675
 H         -15.814368      -37.480873       -8.128909
 H         -14.712538      -38.204174       -9.430190
 H         -14.353967      -40.835518       -6.256503
 H         -13.196927      -41.618446       -7.440152
 H         -16.499111      -39.591347       -9.046737
 H         -16.503582      -39.542145       -7.271428
 H         -15.692977      -41.720261       -8.149219
 H         -14.619551      -40.931225       -9.331540
