20
 generated by VMD
 C         -23.093460      -54.494064      -15.044070
 N         -23.835665      -53.870380      -15.645901
 H         -20.216471      -54.712852      -15.463388
 H         -22.754696      -55.293835      -14.316485
 C         -19.730989      -55.295830      -14.630272
 C         -19.180172      -54.670815      -13.487136
 C         -19.016251      -56.502964      -15.193592
 C         -18.519108      -55.524223      -12.412840
 C         -18.696747      -57.419563      -14.025173
 C         -17.683353      -56.663628      -13.040142
 H         -19.836227      -53.929626      -12.982484
 H         -18.424574      -53.951889      -13.928294
 H         -19.493145      -57.001251      -15.970739
 H         -18.109667      -56.160690      -15.776968
 H         -19.256580      -55.976833      -11.737070
 H         -17.775808      -54.818722      -11.925458
 H         -18.252798      -58.349262      -14.420794
 H         -19.639145      -57.676647      -13.477976
 H         -17.350992      -57.361195      -12.301431
 H         -16.914156      -56.174927      -13.669893
