20
 generated by VMD
 C         -61.644684     -156.052185      -54.059273
 N         -61.297295     -154.937302      -54.345642
 H         -58.763519     -155.241165      -51.893337
 H         -61.945831     -156.996414      -53.540184
 C         -57.746834     -155.166321      -51.520901
 C         -57.446987     -154.417999      -50.269630
 C         -56.581562     -155.367218      -52.482635
 C         -56.204311     -154.912918      -49.592289
 C         -55.255486     -155.917206      -51.834705
 C         -54.978729     -155.076477      -50.555771
 H         -58.369324     -154.369553      -49.671257
 H         -57.062260     -153.319351      -50.533524
 H         -56.928181     -155.989029      -53.245777
 H         -56.354118     -154.353241      -52.921169
 H         -56.475342     -156.027985      -49.369442
 H         -55.911991     -154.266876      -48.769295
 H         -54.414589     -155.809464      -52.492836
 H         -55.425552     -157.012009      -51.499340
 H         -54.172291     -155.478745      -50.054840
 H         -54.587902     -154.032730      -50.812511
