20
 generated by VMD
 C         -70.504059     -197.662720      -64.645851
 N         -69.855873     -197.892807      -65.586113
 H         -73.054527     -196.782684      -66.178459
 H         -71.053925     -197.593552      -63.731731
 C         -73.348244     -195.899673      -66.695778
 C         -73.123421     -194.445145      -66.328110
 C         -74.433060     -196.039413      -67.795036
 C         -72.903564     -193.402710      -67.534065
 C         -74.802071     -194.773026      -68.619041
 C         -73.464371     -194.009918      -68.801933
 H         -72.234024     -194.436813      -65.652580
 H         -74.046249     -194.122604      -65.854881
 H         -74.035461     -196.877777      -68.513977
 H         -75.290627     -196.451614      -67.180084
 H         -71.828590     -193.244720      -67.753922
 H         -73.321136     -192.391785      -67.358276
 H         -75.550278     -194.228500      -68.027306
 H         -75.186302     -195.007019      -69.650864
 H         -72.763992     -194.625107      -69.466393
 H         -73.794975     -193.222137      -69.586624
