20
 generated by VMD
 C         -58.568661     -162.009811      -56.467293
 N         -57.516525     -161.536713      -56.300331
 H         -59.359985     -164.694656      -55.408279
 H         -59.519909     -162.494064      -56.564053
 C         -60.227615     -164.116364      -55.006474
 C         -59.976715     -163.660736      -53.502022
 C         -61.716061     -164.467987      -55.396992
 C         -61.105560     -162.754257      -53.082088
 C         -62.698551     -163.242401      -55.108566
 C         -62.614925     -162.961853      -53.573322
 H         -59.070103     -163.096603      -53.480568
 H         -59.961880     -164.549057      -52.882607
 H         -61.730503     -164.543365      -56.526264
 H         -61.976105     -165.456573      -55.035381
 H         -60.986217     -161.781769      -53.460915
 H         -61.123600     -162.529663      -52.011436
 H         -63.683041     -163.696869      -55.367611
 H         -62.302708     -162.415024      -55.701973
 H         -63.308182     -162.142502      -53.297958
 H         -63.045502     -163.774506      -53.026291
