20
 generated by VMD
 C         -43.254646     -121.196709      -35.669392
 N         -43.269886     -120.501167      -34.737988
 H         -44.624210     -122.103127      -39.166180
 H         -43.061970     -121.956352      -36.493351
 C         -44.499840     -121.016541      -39.106964
 C         -43.344769     -120.431633      -39.762817
 C         -45.675579     -120.193497      -38.694809
 C         -43.579296     -119.026749      -40.478821
 C         -45.857571     -118.838501      -39.393616
 C         -44.542992     -118.142906      -39.696140
 H         -42.843472     -121.204155      -40.424206
 H         -42.518265     -120.296295      -39.066765
 H         -46.595741     -120.853119      -38.693512
 H         -45.407871     -120.019180      -37.652576
 H         -43.987919     -119.118835      -41.542137
 H         -42.529079     -118.712723      -40.679840
 H         -46.763222     -118.364540      -38.933720
 H         -46.282391     -119.163902      -40.397484
 H         -44.568958     -117.207237      -40.215584
 H         -44.133636     -117.880310      -38.754833
