20
 generated by VMD
 C         -29.337437      -90.350685      -25.014610
 N         -29.021940      -91.432968      -25.272839
 H         -32.291653      -90.902184      -26.931969
 H         -29.663368      -89.278000      -24.972555
 C         -33.140236      -90.787048      -27.629662
 C         -34.436832      -91.600159      -27.492435
 C         -33.084084      -89.704872      -28.682293
 C         -35.549210      -90.537018      -27.360769
 C         -34.125809      -88.619331      -28.332743
 C         -35.464470      -89.450195      -28.399509
 H         -34.421318      -92.375755      -26.719559
 H         -34.574181      -92.087364      -28.419039
 H         -32.067799      -89.279366      -28.634706
 H         -33.390110      -90.097816      -29.649284
 H         -35.343750      -90.303299      -26.332876
 H         -36.525921      -91.151978      -27.386145
 H         -34.249397      -87.763618      -29.020323
 H         -34.124550      -88.145340      -27.354933
 H         -36.292999      -88.810654      -27.993916
 H         -35.685654      -89.604073      -29.486032
