20
 generated by VMD
 C         -18.093031      -48.554207       -7.377426
 N         -18.444839      -48.858284       -6.362423
 H         -16.334257      -48.047100      -10.140539
 H         -16.034262      -49.104622      -11.687794
 C         -16.310854      -48.065445      -11.270194
 C         -15.183742      -47.101124      -11.732821
 C         -17.751190      -47.653130      -11.761188
 C         -15.301386      -46.852787      -13.281063
 C         -17.784327      -47.436798      -13.273295
 C         -16.707455      -46.492359      -13.719743
 H         -14.318278      -47.638203      -11.460512
 H         -15.215571      -46.124336      -11.196248
 H         -18.459877      -48.416729      -11.444288
 H         -18.099577      -46.792648      -11.239820
 H         -14.939470      -47.730145      -13.838734
 H         -14.595002      -46.058292      -13.615891
 H         -18.792027      -47.095051      -13.554223
 H         -17.531708      -48.411880      -13.740567
 H         -16.752773      -46.474926      -14.858391
 H         -16.927877      -45.424789      -13.394744
