20
 generated by VMD
 C         -44.071720     -121.676216      -35.998005
 N         -43.779755     -120.599724      -35.675919
 H         -44.830605     -122.633209      -39.494530
 H         -44.570301     -122.579514      -36.144741
 C         -44.778362     -121.528679      -39.558807
 C         -43.420525     -120.913170      -39.696579
 C         -45.759087     -120.600983      -39.012539
 C         -43.348694     -119.566284      -40.176945
 C         -45.741741     -119.129478      -39.474911
 C         -44.325191     -118.598732      -39.335377
 H         -42.879604     -121.558212      -40.341442
 H         -43.007263     -120.972816      -38.660664
 H         -46.720512     -121.030983      -39.311844
 H         -45.694233     -120.767639      -37.876106
 H         -43.743130     -119.653336      -41.203510
 H         -42.300529     -119.132416      -40.253983
 H         -46.424919     -118.575989      -38.651318
 H         -46.260445     -119.091393      -40.470680
 H         -44.251717     -117.563896      -39.609882
 H         -44.044888     -118.458206      -38.309513
