20
 generated by VMD
 C         -13.456964      -30.752394       -8.325090
 N         -13.265783      -30.052279       -9.155427
 H         -11.102607      -31.895702       -6.198014
 H         -11.426357      -31.808510       -4.415642
 C         -11.160798      -32.455086       -5.230282
 C          -9.672080      -32.953373       -4.953585
 C         -12.119668      -33.620838       -5.390364
 C          -9.471765      -34.074780       -3.898411
 C         -11.920082      -34.678528       -4.380006
 C         -10.491694      -35.207870       -4.274359
 H          -9.107213      -32.057537       -4.686312
 H          -9.371854      -33.333767       -5.941442
 H         -13.109879      -33.149841       -5.281329
 H         -11.978065      -33.987183       -6.426859
 H          -9.683800      -33.761349       -2.876737
 H          -8.446838      -34.479755       -3.943623
 H         -12.633542      -35.536098       -4.658524
 H         -12.151454      -34.319603       -3.386176
 H         -10.413378      -35.962074       -3.454105
 H         -10.243328      -35.646435       -5.230999
