20
 generated by VMD
 C         -31.948423      -76.210777      -24.422125
 N         -31.465631      -76.622452      -25.396519
 H         -29.613379      -77.737953      -22.609697
 H         -31.974230      -75.745544      -23.381773
 C         -28.630980      -77.916374      -22.262022
 C         -27.592665      -78.054398      -23.302866
 C         -28.383978      -78.367149      -20.866096
 C         -26.182325      -78.069283      -22.762196
 C         -26.912010      -78.468758      -20.344143
 C         -25.974678      -78.793900      -21.468477
 H         -27.668081      -77.306419      -24.027069
 H         -27.823109      -79.043373      -23.673874
 H         -28.974607      -77.816566      -20.088354
 H         -28.662598      -79.412163      -21.053205
 H         -25.829649      -77.050217      -22.737267
 H         -25.426964      -78.472916      -23.463757
 H         -26.732641      -79.190140      -19.515148
 H         -26.684818      -77.561829      -19.933792
 H         -25.016741      -78.589951      -21.039728
 H         -25.971968      -79.869148      -21.651638
