20
 generated by VMD
 C          -1.533604      -10.617649        0.832442
 N          -0.792915      -10.809563        1.662466
 H          -3.849380      -13.001344        0.189347
 H          -5.051623      -12.464985        1.360351
 C          -4.496646      -13.337116        0.974109
 C          -3.591792      -13.944487        2.084264
 C          -5.457470      -14.391615        0.413428
 C          -4.495721      -14.508523        3.234174
 C          -6.294963      -15.074280        1.487016
 C          -5.467281      -15.535571        2.688049
 H          -2.876891      -13.252975        2.469821
 H          -2.971255      -14.751026        1.713381
 H          -6.143717      -13.816473       -0.269096
 H          -4.856718      -15.157712       -0.231028
 H          -4.981566      -13.666739        3.773296
 H          -3.829174      -14.904125        3.990207
 H          -6.803205      -15.926446        1.018086
 H          -7.126872      -14.438496        1.770443
 H          -6.157003      -16.018587        3.448350
 H          -4.902476      -16.399857        2.242309
