20
 generated by VMD
 C         -57.810852     -165.544434      -56.403107
 N         -57.243912     -164.841736      -57.121445
 H         -60.263542     -164.605316      -54.279408
 H         -58.403214     -166.200165      -55.748676
 C         -61.183964     -164.916595      -54.656391
 C         -61.938255     -166.175766      -54.277630
 C         -61.810337     -163.908142      -55.670723
 C         -63.412014     -166.152374      -54.632187
 C         -63.376499     -164.019073      -55.735203
 C         -63.707195     -165.463562      -55.965374
 H         -61.926300     -166.342926      -53.260651
 H         -61.519974     -167.032990      -54.805813
 H         -61.634457     -162.794937      -55.340374
 H         -61.394840     -163.965286      -56.679684
 H         -64.036018     -165.647293      -53.817081
 H         -63.767979     -167.197693      -54.686337
 H         -63.559841     -163.551788      -56.715694
 H         -63.833675     -163.631989      -54.793583
 H         -64.795181     -165.649811      -56.186134
 H         -63.161934     -166.010620      -56.836613
