20
 generated by VMD
 C         -40.075161     -107.282158      -37.750637
 N         -39.159279     -106.601532      -37.871754
 H         -39.035702     -108.449715      -34.862709
 H         -40.883312     -107.941154      -37.960274
 C         -39.636497     -109.087112      -34.177631
 C         -38.904408     -110.066414      -33.456051
 C         -41.067364     -108.946327      -34.207848
 C         -39.747189     -110.861710      -32.416203
 C         -41.800045     -109.619743      -33.024712
 C         -41.219753     -111.034088      -32.774635
 H         -38.128601     -109.613350      -32.921417
 H         -38.538090     -110.840233      -34.059292
 H         -41.361263     -107.842522      -34.298939
 H         -41.466801     -109.468208      -35.098690
 H         -39.553741     -110.357887      -31.350693
 H         -39.359684     -111.907516      -32.291973
 H         -42.839848     -109.559700      -33.239662
 H         -41.623764     -109.114716      -32.077919
 H         -41.684765     -111.552368      -32.030106
 H         -41.294342     -111.654839      -33.736038
