20
 generated by VMD
 C         -12.635011      -30.248705       -8.115872
 N         -13.120031      -30.638451       -7.186793
 H         -11.171223      -30.434547       -5.293468
 H         -10.823993      -30.859661       -3.695226
 C         -10.906409      -31.248112       -4.737977
 C          -9.573673      -31.863171       -5.279845
 C         -11.973251      -32.338619       -4.669405
 C          -9.109337      -33.049652       -4.570791
 C         -11.476127      -33.575203       -3.949081
 C         -10.146816      -34.109989       -4.598693
 H          -8.793002      -31.049034       -5.241566
 H          -9.713285      -32.009686       -6.312909
 H         -12.811876      -31.898018       -4.104264
 H         -12.420415      -32.650856       -5.629045
 H          -8.755849      -32.882668       -3.509369
 H          -8.223518      -33.521954       -5.104768
 H         -12.184415      -34.381721       -3.857330
 H         -11.276308      -33.279598       -2.872572
 H          -9.803205      -34.993919       -4.047964
 H         -10.261278      -34.564175       -5.622712
