20
 generated by VMD
 C         -14.173900      -28.109573       -3.107521
 N         -14.053297      -27.176609       -3.716569
 H         -10.200006      -28.238350       -2.769665
 H          -9.929307      -27.171867       -4.176746
 C          -9.471738      -27.925543       -3.451466
 C          -8.865825      -29.125023       -4.203827
 C          -8.440932      -27.262762       -2.508425
 C          -7.660564      -28.642229       -5.126879
 C          -7.169604      -26.925625       -3.286975
 C          -6.616311      -27.951328       -4.237956
 H          -9.638935      -29.518953       -4.907701
 H          -8.434134      -29.910725       -3.502506
 H          -8.831709      -26.333527       -2.083239
 H          -8.184956      -27.883488       -1.671745
 H          -8.030946      -27.944981       -5.923791
 H          -7.235179      -29.602282       -5.564926
 H          -6.353607      -26.797401       -2.588286
 H          -7.323576      -25.957506       -3.849651
 H          -5.940973      -27.413059       -4.946640
 H          -5.946486      -28.569700       -3.678447
