20
 generated by VMD
 C          -1.672509       -9.324841        1.039257
 N          -1.757314       -9.779743        0.043772
 H          -2.828142      -11.951210        1.823936
 H          -3.595986      -12.102601        3.375686
 C          -3.501286      -12.616571        2.422348
 C          -2.958361      -14.043497        2.488616
 C          -4.873887      -12.625591        1.620718
 C          -3.879634      -14.937572        3.205985
 C          -5.875570      -13.597558        2.296021
 C          -5.298923      -14.994187        2.595797
 H          -2.026372      -13.880179        3.018731
 H          -2.662915      -14.237886        1.419984
 H          -5.304496      -11.615778        1.586358
 H          -4.653387      -13.001705        0.570004
 H          -4.076747      -14.425088        4.227870
 H          -3.514510      -15.956639        3.416786
 H          -6.777832      -13.665776        1.723666
 H          -6.169688      -13.128044        3.242850
 H          -5.984575      -15.632061        3.162972
 H          -5.175202      -15.512457        1.671070
