20
 generated by VMD
 C         -58.096092     -161.862701      -56.245529
 N         -57.152439     -162.012497      -56.941788
 H         -59.841843     -165.065903      -55.142303
 H         -59.033440     -161.765900      -55.694160
 C         -60.511574     -164.328156      -54.876690
 C         -60.450363     -163.959839      -53.460392
 C         -61.781658     -164.588943      -55.645741
 C         -61.603519     -163.028442      -53.056263
 C         -62.676376     -163.454254      -55.209267
 C         -62.808662     -163.391800      -53.724998
 H         -59.527485     -163.479004      -53.106346
 H         -60.648540     -164.935715      -52.870586
 H         -61.541615     -164.275970      -56.728855
 H         -62.110893     -165.588425      -55.544594
 H         -61.300179     -161.978653      -53.313160
 H         -61.792854     -162.935959      -51.929928
 H         -63.618511     -163.796539      -55.692848
 H         -62.237667     -162.512527      -55.538975
 H         -63.636917     -162.710861      -53.534969
 H         -63.305645     -164.286636      -53.390499
