20
 generated by VMD
 C         -60.497208     -155.624100      -54.442974
 N         -61.128849     -156.515366      -54.693260
 H         -59.336582     -155.403473      -51.605221
 H         -59.830597     -154.919861      -54.056385
 C         -58.255669     -155.383362      -51.436890
 C         -57.548508     -154.450470      -50.476994
 C         -57.423359     -156.146423      -52.487579
 C         -56.373852     -155.336182      -49.931458
 C         -56.145424     -156.888611      -51.934952
 C         -55.422470     -155.929321      -50.951408
 H         -58.151875     -154.181458      -49.670940
 H         -57.132450     -153.646347      -51.119026
 H         -58.138416     -156.864044      -52.859440
 H         -57.296169     -155.317383      -53.325191
 H         -56.862534     -156.177139      -49.297882
 H         -55.865864     -154.777420      -49.185951
 H         -55.461014     -157.248917      -52.631863
 H         -56.605591     -157.805222      -51.445183
 H         -54.715836     -156.502396      -50.354912
 H         -54.823265     -155.058167      -51.360275
