20
 generated by VMD
 C         -11.602239      -33.715786       -8.438086
 N         -10.789265      -33.613701       -9.241214
 H         -11.666787      -36.722466       -8.135309
 H         -12.072462      -36.162178       -6.475886
 C         -12.232064      -36.999592       -7.240848
 C         -11.976818      -38.318485       -6.545631
 C         -13.735140      -36.846699       -7.631154
 C         -12.941072      -38.584171       -5.398434
 C         -14.733188      -37.221718       -6.557416
 C         -14.455647      -38.516830       -5.769953
 H         -10.944097      -38.326893       -6.258768
 H         -12.034619      -39.166000       -7.246331
 H         -13.981615      -35.908455       -8.091075
 H         -13.830155      -37.587009       -8.460692
 H         -12.696135      -37.924908       -4.624052
 H         -12.797469      -39.561344       -4.893154
 H         -15.719206      -37.397881       -7.025159
 H         -14.839667      -36.401588       -5.773651
 H         -15.120182      -38.615143       -4.903608
 H         -14.672092      -39.419743       -6.427155
