20
 generated by VMD
 C         -19.659883      -60.262962      -17.801529
 N         -19.713369      -59.140923      -17.993410
 H         -22.837288      -59.806252      -15.877007
 H         -19.766922      -61.413918      -17.742868
 C         -22.919313      -60.879913      -16.030233
 C         -23.335411      -61.568832      -17.212263
 C         -23.427401      -61.588043      -14.802608
 C         -22.768091      -62.947163      -17.267012
 C         -22.764294      -63.073212      -14.737870
 C         -23.181540      -63.767464      -16.052010
 H         -22.948687      -60.971569      -18.097864
 H         -24.457748      -61.512913      -17.362864
 H         -22.909573      -61.123245      -13.912590
 H         -24.570879      -61.535801      -14.901573
 H         -21.669001      -62.939716      -17.303476
 H         -22.945873      -63.486950      -18.196810
 H         -23.250263      -63.556072      -13.861540
 H         -21.644394      -62.990955      -14.734447
 H         -22.882860      -64.780869      -16.237230
 H         -24.298111      -63.829529      -16.045130
