20
 generated by VMD
 C         -60.689850     -153.524643      -51.697601
 N         -61.441364     -154.407135      -51.924889
 H         -57.507679     -153.966415      -52.148193
 H         -60.060699     -152.723022      -51.351639
 C         -56.756023     -153.464966      -51.559357
 C         -56.672215     -153.785706      -50.114910
 C         -55.943768     -152.406052      -52.182018
 C         -55.167664     -153.950317      -49.756920
 C         -54.543461     -152.446213      -51.587425
 C         -54.275772     -152.796753      -50.090347
 H         -57.282307     -154.667297      -49.847847
 H         -57.097679     -153.120026      -49.349522
 H         -55.920795     -152.553085      -53.237411
 H         -56.394608     -151.457291      -51.963314
 H         -54.753109     -154.783188      -50.229099
 H         -55.038639     -153.989914      -48.654720
 H         -54.052841     -151.548050      -51.807247
 H         -53.819672     -153.217682      -52.193996
 H         -53.185513     -153.093781      -49.890755
 H         -54.523357     -152.011993      -49.476791
