20
 generated by VMD
 C         -11.971967      -31.524094       -8.295024
 N         -12.113906      -30.653311       -7.631429
 H         -11.431477      -34.768291       -7.948557
 H         -12.623166      -34.076298       -6.889270
 C         -11.810327      -34.713814       -6.910746
 C         -10.781053      -34.011139       -6.003325
 C         -12.246284      -36.037296       -6.356245
 C         -11.243265      -33.836868       -4.569836
 C         -12.605981      -35.924984       -4.854300
 C         -11.601418      -35.187943       -4.010136
 H         -10.468530      -33.041622       -6.397210
 H          -9.891462      -34.632431       -5.953253
 H         -13.063072      -36.462479       -6.922126
 H         -11.412029      -36.747929       -6.351703
 H         -12.206704      -33.293312       -4.603840
 H         -10.410998      -33.283764       -4.071251
 H         -12.820555      -36.959904       -4.526589
 H         -13.560692      -35.363319       -4.872326
 H         -11.920491      -35.076889       -2.988379
 H         -10.626945      -35.785091       -3.961662
