20
 generated by VMD
 C         -10.362781      -36.187244       -7.346961
 N          -9.895327      -36.970459       -7.959549
 H         -13.306132      -38.300671       -7.731067
 H         -14.679888      -39.011303       -6.745875
 C         -14.095348      -39.090130       -7.705780
 C         -13.547954      -40.535503       -7.794043
 C         -15.197413      -38.881706       -8.794482
 C         -14.706123      -41.495438       -7.440482
 C         -16.329910      -39.932873       -8.751335
 C         -15.807053      -41.375259       -8.521275
 H         -12.780767      -40.766727       -7.022562
 H         -13.136189      -40.687489       -8.810760
 H         -15.634547      -37.858894       -8.686433
 H         -14.736294      -38.930077       -9.763551
 H         -15.165950      -41.214874       -6.492723
 H         -14.290971      -42.498753       -7.392694
 H         -16.942245      -39.838097       -9.706223
 H         -17.029373      -39.656616       -7.968336
 H         -16.632433      -42.142456       -8.328773
 H         -15.366148      -41.667763       -9.488909
