20
 generated by VMD
 C          -2.240729       -9.050937        0.711313
 N          -1.617926       -9.620381       -0.047569
 H          -2.485213      -11.981025        2.092029
 H          -3.257948      -12.225893        3.705790
 C          -3.279436      -12.511543        2.658551
 C          -2.797906      -13.976892        2.684735
 C          -4.633189      -12.361915        2.016818
 C          -3.902843      -14.944679        3.131695
 C          -5.707795      -13.275181        2.623912
 C          -5.247095      -14.757956        2.393461
 H          -1.893366      -14.150283        3.332980
 H          -2.446212      -14.310528        1.631858
 H          -4.971081      -11.322873        1.945418
 H          -4.585711      -12.699491        0.983117
 H          -3.949933      -14.894167        4.235473
 H          -3.529475      -15.958393        2.876873
 H          -6.640324      -13.063107        2.071942
 H          -5.920220      -13.049403        3.687103
 H          -5.924558      -15.375990        2.933385
 H          -5.191061      -15.050450        1.337153
