20
 generated by VMD
 C         -68.679092     -185.420135      -66.912086
 N         -67.668343     -184.916901      -66.621010
 H         -69.334991     -188.069550      -64.957741
 H         -69.676865     -185.891647      -67.126450
 C         -69.500183     -187.536331      -63.994640
 C         -69.723663     -186.062378      -63.769405
 C         -70.030342     -188.430313      -62.919277
 C         -69.605324     -185.578766      -62.359703
 C         -69.751091     -187.840179      -61.421013
 C         -70.454277     -186.421768      -61.345123
 H         -70.674042     -185.831345      -64.267723
 H         -68.879120     -185.602676      -64.342278
 H         -71.132767     -188.546326      -63.037880
 H         -69.518967     -189.465988      -62.914810
 H         -69.868523     -184.540131      -62.291584
 H         -68.474213     -185.727859      -62.185711
 H         -68.728790     -187.831863      -61.116379
 H         -70.202087     -188.457138      -60.668903
 H         -71.577728     -186.385345      -61.688560
 H         -70.309586     -186.249664      -60.253086
