20
 generated by VMD
 C         -20.528988      -64.489471      -16.989466
 N         -19.607084      -64.252472      -16.312054
 H         -24.142471      -63.293839      -17.564476
 H         -21.442633      -64.541428      -17.431133
 C         -24.482847      -64.287064      -17.837877
 C         -24.713898      -64.613792      -19.305979
 C         -24.741488      -65.337532      -16.857033
 C         -24.698431      -66.126221      -19.622894
 C         -24.646173      -66.729340      -17.339001
 C         -25.466146      -66.966827      -18.600925
 H         -23.947706      -64.086334      -19.868269
 H         -25.660744      -64.188438      -19.697004
 H         -23.857031      -65.187370      -16.115913
 H         -25.756033      -65.143074      -16.458780
 H         -23.644962      -66.541756      -19.671234
 H         -25.119703      -66.354362      -20.676147
 H         -24.879820      -67.412964      -16.528160
 H         -23.560116      -66.913689      -17.587488
 H         -25.647411      -67.961426      -18.942533
 H         -26.507547      -66.489555      -18.455719
