20
 generated by VMD
 C         -40.110142     -100.321487      -30.288660
 N         -40.801373     -100.355499      -31.225348
 H         -37.217167     -102.303001      -30.720112
 H         -39.523045      -99.990356      -29.378582
 C         -36.612759     -101.436508      -30.847494
 C         -36.482479     -100.825806      -32.267670
 C         -35.374599     -101.208992      -30.083612
 C         -36.047695      -99.400131      -32.247696
 C         -34.962189      -99.782845      -30.050547
 C         -34.688206      -99.264832      -31.538158
 H         -37.469887     -101.033363      -32.686924
 H         -35.775425     -101.442764      -32.758011
 H         -35.421265     -101.601593      -29.008648
 H         -34.739937     -101.866631      -30.641914
 H         -36.901123      -98.844971      -31.816126
 H         -35.842579      -99.038399      -33.318722
 H         -34.049686      -99.625214      -29.467197
 H         -35.735661      -99.098564      -29.672832
 H         -34.432827      -98.234032      -31.711464
 H         -33.884518      -99.897415      -31.862843
