20
 generated by VMD
 C         -47.976620     -134.602829      -46.889065
 N         -47.969959     -134.148636      -47.955326
 H         -50.342892     -134.357559      -44.783688
 H         -47.703671     -134.811020      -45.868004
 C         -50.573772     -135.258194      -44.317791
 C         -50.866165     -136.547409      -45.065128
 C         -51.042439     -135.135422      -42.961876
 C         -50.926632     -137.756409      -44.227676
 C         -51.280769     -136.461319      -42.155689
 C         -51.759747     -137.595337      -42.926628
 H         -50.077202     -136.572968      -45.854294
 H         -51.868050     -136.412521      -45.588604
 H         -50.320183     -134.396729      -42.394623
 H         -51.950157     -134.579483      -43.187168
 H         -49.991837     -138.118179      -43.885292
 H         -51.427277     -138.508453      -44.901405
 H         -51.827972     -136.319183      -41.262726
 H         -50.345436     -136.788452      -41.783489
 H         -51.937935     -138.485443      -42.285301
 H         -52.852406     -137.295654      -43.096779
