20
 generated by VMD
 C         -75.211533     -201.324921      -66.322678
 N         -75.643097     -202.217102      -65.675293
 H         -76.190041     -199.421906      -69.504539
 H         -74.827202     -200.595993      -66.977638
 C         -75.218460     -199.072723      -69.233238
 C         -74.907600     -198.167023      -68.091064
 C         -74.080704     -199.690826      -70.066689
 C         -73.394089     -198.023727      -68.124542
 C         -73.071907     -198.688187      -70.542854
 C         -72.863091     -197.568283      -69.512733
 H         -75.330734     -198.575287      -67.159241
 H         -75.253113     -197.138062      -68.307671
 H         -73.585098     -200.539459      -69.579216
 H         -74.490051     -200.295242      -70.977554
 H         -72.868187     -198.911301      -67.694420
 H         -73.032013     -197.224411      -67.374107
 H         -73.560799     -198.340912      -71.432373
 H         -72.091774     -199.119476      -70.741936
 H         -71.859985     -197.311478      -69.401840
 H         -73.385353     -196.582794      -69.937668
