20
 generated by VMD
 C          -2.289942      -16.900135        2.832144
 N          -2.414491      -16.336426        1.877761
 H          -4.472794      -15.853613        0.169155
 H          -4.400679      -17.067749       -1.073322
 C          -5.049345      -16.639351       -0.265246
 C          -6.290737      -16.007257       -0.941560
 C          -5.396465      -17.604343        0.813792
 C          -7.365181      -17.039288       -1.345844
 C          -6.404371      -18.635859        0.311689
 C          -7.642589      -17.964327       -0.203243
 H          -5.887799      -15.479467       -1.855413
 H          -6.692054      -15.232440       -0.327414
 H          -4.534870      -18.142525        1.170821
 H          -5.754732      -17.144655        1.758497
 H          -6.811499      -17.656237       -2.141725
 H          -8.301368      -16.642868       -1.773167
 H          -6.669859      -19.404104        1.083823
 H          -5.893053      -19.150486       -0.496681
 H          -8.360345      -18.732300       -0.430881
 H          -7.995925      -17.288990        0.582449
