20
 generated by VMD
 C         -48.247417     -135.398468      -46.113773
 N         -47.406815     -135.057495      -46.920044
 H         -51.433247     -134.719406      -45.548897
 H         -48.843090     -135.617050      -45.205086
 C         -51.351856     -135.636673      -45.008137
 C         -52.001549     -136.826019      -45.448860
 C         -51.292610     -135.457916      -43.443882
 C         -51.377914     -138.067505      -44.803894
 C         -50.706524     -136.692673      -42.846092
 C         -51.352154     -137.949036      -43.219673
 H         -51.932930     -136.842606      -46.514145
 H         -53.105671     -136.686142      -45.184914
 H         -50.746471     -134.572525      -43.172337
 H         -52.366840     -135.195557      -43.248577
 H         -50.328194     -138.336212      -45.136814
 H         -51.984295     -138.944122      -45.039661
 H         -50.737602     -136.627991      -41.769623
 H         -49.653561     -136.820740      -43.227051
 H         -50.731194     -138.719894      -42.825436
 H         -52.333267     -137.808502      -42.912128
