20
 generated by VMD
 C         -21.932886      -55.254963      -17.349072
 N         -22.142647      -55.554329      -18.501186
 H         -22.322002      -57.682995      -14.426470
 H         -21.923927      -55.092335      -16.217188
 C         -21.227779      -57.577332      -14.195313
 C         -20.977245      -58.319466      -12.839607
 C         -20.174488      -57.896057      -15.265455
 C         -20.739353      -59.872009      -13.088063
 C         -20.033869      -59.408772      -15.565541
 C         -19.852167      -60.267441      -14.285207
 H         -21.851521      -58.161022      -12.195992
 H         -20.141571      -57.869537      -12.418930
 H         -20.300056      -57.187672      -16.099148
 H         -19.145374      -57.677929      -14.809670
 H         -21.739380      -60.307808      -13.402156
 H         -20.473923      -60.406612      -12.144232
 H         -19.276838      -59.740883      -16.308334
 H         -21.003847      -59.730507      -15.997823
 H         -19.925501      -61.360302      -14.547723
 H         -18.879780      -60.175495      -13.860744
