20
 generated by VMD
 C         -12.080603      -25.393761       -0.554301
 N         -12.849324      -25.851967        0.131987
 H          -8.786833      -26.758396       -1.992305
 H          -9.408792      -25.964399       -3.392069
 C          -8.440653      -26.223585       -2.865079
 C          -7.475885      -27.075863       -3.742971
 C          -7.848788      -24.922741       -2.386432
 C          -6.928395      -26.109957       -4.983551
 C          -7.299732      -24.037880       -3.526887
 C          -6.268603      -24.818113       -4.436132
 H          -7.970847      -27.881416       -4.252440
 H          -6.575996      -27.492813       -3.159016
 H          -8.676500      -24.383070       -1.905817
 H          -7.076374      -25.081739       -1.607489
 H          -7.786977      -25.841288       -5.647040
 H          -6.203928      -26.745935       -5.531567
 H          -6.712690      -23.211332       -3.083316
 H          -8.075233      -23.594849       -4.158429
 H          -6.103724      -24.195265       -5.311553
 H          -5.358855      -24.959026       -3.823543
