20
 generated by VMD
 C          -2.651177      -17.975754        2.677198
 N          -2.060977      -17.220226        2.111880
 H          -5.351899      -18.397186        1.054834
 H          -5.213439      -19.562723       -0.229039
 C          -5.817572      -18.774446        0.171883
 C          -5.814980      -17.563276       -0.889712
 C          -7.190218      -19.284184        0.386263
 C          -6.647468      -17.779745       -2.154861
 C          -8.020510      -19.471411       -0.848045
 C          -8.081501      -18.226118       -1.831039
 H          -4.700943      -17.387951       -0.984541
 H          -6.193342      -16.709053       -0.358326
 H          -7.153810      -20.224218        0.976536
 H          -7.767025      -18.564632        1.018173
 H          -6.230148      -18.605141       -2.736545
 H          -6.633367      -16.964252       -2.806728
 H          -9.042171      -19.813948       -0.643567
 H          -7.561171      -20.322126       -1.340472
 H          -8.641040      -18.433916       -2.734653
 H          -8.582749      -17.420286       -1.272852
