20
 generated by VMD
 C         -22.978605      -53.579468      -13.849998
 N         -23.638117      -52.815285      -14.459448
 H         -20.799236      -55.256535      -14.044475
 H         -22.221245      -53.987446      -13.098806
 C         -19.633297      -54.961498      -14.048195
 C         -19.074917      -53.624725      -13.801715
 C         -18.785366      -56.136757      -14.337793
 C         -17.955915      -53.781357      -12.779316
 C         -17.523424      -56.067070      -13.468779
 C         -16.851717      -54.673847      -13.387315
 H         -19.793783      -52.892097      -13.480496
 H         -18.812048      -53.231140      -14.740320
 H         -19.338253      -57.021557      -14.111107
 H         -18.575392      -56.160187      -15.405061
 H         -18.256493      -54.248783      -11.845403
 H         -17.474390      -52.813889      -12.562442
 H         -16.722599      -56.719307      -13.812438
 H         -17.781561      -56.411301      -12.454412
 H         -16.009237      -54.766365      -12.678231
 H         -16.525206      -54.239883      -14.405492
