20
 generated by VMD
 C         -67.756950     -191.681885      -66.865501
 N         -66.670532     -192.154968      -66.991859
 H         -70.758858     -189.206512      -66.362549
 H         -68.760551     -191.490799      -66.640503
 C         -71.207878     -189.755875      -65.559906
 C         -71.835625     -191.099106      -65.827835
 C         -71.224495     -189.303192      -64.149567
 C         -73.149406     -191.296265      -65.124725
 C         -72.582581     -189.380524      -63.481915
 C         -73.333900     -190.721695      -63.734154
 H         -71.149277     -191.930847      -65.559151
 H         -71.943230     -191.331390      -66.965805
 H         -70.518730     -189.891769      -63.595150
 H         -70.876045     -188.221222      -64.162155
 H         -73.378548     -192.315201      -65.175392
 H         -73.824646     -190.751434      -65.778038
 H         -73.098114     -188.537949      -63.844234
 H         -72.360870     -189.193054      -62.477619
 H         -72.929276     -191.295303      -62.967789
 H         -74.450905     -190.592041      -63.604500
