20
 generated by VMD
 C         -38.544598     -108.086555      -36.778450
 N         -38.030819     -108.793449      -37.570786
 H         -41.394161     -109.074890      -35.881527
 H         -39.180988     -107.418930      -36.152672
 C         -41.317688     -109.766960      -35.126774
 C         -40.512493     -111.086746      -35.314785
 C         -42.481712     -109.825203      -34.058556
 C         -40.252213     -111.904633      -34.041122
 C         -42.198635     -110.744553      -32.824100
 C         -41.483433     -112.015701      -33.227390
 H         -39.636749     -110.693901      -35.744999
 H         -41.040184     -111.589653      -36.101379
 H         -42.422642     -108.810959      -33.659447
 H         -43.444511     -110.038872      -34.646202
 H         -39.479340     -111.441475      -33.461849
 H         -40.024624     -112.926651      -34.186287
 H         -43.150978     -110.839828      -32.280079
 H         -41.399586     -110.260933      -32.080162
 H         -41.260635     -112.627937      -32.368954
 H         -42.056076     -112.675987      -33.803043
