20
 generated by VMD
 C         -59.429840     -152.014969      -49.371952
 N         -58.736805     -152.289169      -50.193283
 H         -56.690186     -150.741409      -48.823036
 H         -60.099735     -151.629211      -48.593784
 C         -55.732979     -150.489944      -49.167053
 C         -54.700596     -151.569901      -49.705536
 C         -55.457996     -148.963226      -49.173946
 C         -54.284725     -150.974304      -51.044502
 C         -54.802181     -148.554489      -50.569656
 C         -53.739170     -149.609756      -50.992096
 H         -55.356159     -152.363419      -49.900787
 H         -53.770630     -151.785355      -49.059345
 H         -56.296295     -148.279160      -48.948479
 H         -54.717022     -148.735580      -48.447399
 H         -55.108372     -150.998886      -51.777481
 H         -53.566002     -151.679993      -51.406044
 H         -54.480618     -147.535065      -50.815029
 H         -55.596661     -148.609848      -51.390385
 H         -53.328896     -149.401657      -52.080151
 H         -52.856216     -149.494766      -50.383976
