20
 generated by VMD
 C         -40.337086     -100.201111      -30.084518
 N         -41.368893     -100.542084      -30.471773
 H         -37.329350     -101.570274      -30.822954
 H         -39.391609      -99.919067      -29.621088
 C         -36.537762     -100.852982      -30.850441
 C         -36.349186     -100.437065      -32.199196
 C         -35.300247     -100.708084      -30.022326
 C         -35.453411      -99.137375      -32.442608
 C         -34.612129      -99.410736      -30.109118
 C         -34.320644      -99.040932      -31.466854
 H         -37.354946     -100.306183      -32.607048
 H         -35.901672     -101.287254      -32.752678
 H         -35.487625     -100.984444      -28.988638
 H         -34.595543     -101.503609      -30.420937
 H         -36.092239      -98.156555      -32.411201
 H         -35.136841      -99.257156      -33.474728
 H         -33.763390      -99.477440      -29.467907
 H         -35.236141      -98.628494      -29.525043
 H         -33.927544      -98.000252      -31.588612
 H         -33.469364      -99.519485      -31.900492
