20
 generated by VMD
 C         -47.511929     -139.251816      -45.739212
 N         -46.726734     -138.770508      -46.488148
 H         -50.890961     -138.623596      -44.635361
 H         -48.110950     -140.001877      -45.167519
 C         -51.798744     -138.944031      -45.153503
 C         -51.827633     -139.270996      -46.679649
 C         -53.088272     -138.550018      -44.414902
 C         -53.022873     -140.258530      -46.929596
 C         -54.098354     -139.611115      -44.706551
 C         -54.333103     -139.745834      -46.290878
 H         -50.903843     -139.841034      -47.103664
 H         -51.999855     -138.296951      -47.177326
 H         -52.955292     -138.453232      -43.317051
 H         -53.411850     -137.578079      -44.830662
 H         -52.761703     -141.314697      -46.543144
 H         -53.115677     -140.327423      -48.004375
 H         -55.083195     -139.376862      -44.355705
 H         -53.576817     -140.486969      -44.108089
 H         -54.992432     -140.590576      -46.395767
 H         -54.681984     -138.933273      -46.701054
