20
 generated by VMD
 C         -68.329269     -185.689804      -67.055321
 N         -67.992401     -184.665253      -67.446655
 H         -68.996719     -188.435760      -64.823959
 H         -68.584938     -186.627975      -66.687584
 C         -69.446945     -187.946167      -63.914597
 C         -69.121162     -186.460388      -63.556999
 C         -70.427231     -188.693069      -62.989796
 C         -69.410553     -186.150040      -62.067928
 C         -70.726128     -188.150696      -61.581039
 C         -70.766701     -186.608368      -61.560108
 H         -69.680840     -185.798264      -64.146217
 H         -68.143654     -186.106552      -63.887783
 H         -71.345863     -188.804474      -63.573021
 H         -70.178131     -189.703552      -62.977638
 H         -69.511505     -185.060165      -61.837578
 H         -68.549828     -186.533310      -61.583382
 H         -69.890549     -188.416092      -60.977707
 H         -71.706779     -188.447708      -61.250347
 H         -71.626778     -186.196152      -62.221104
 H         -70.964149     -186.555237      -60.420391
