20
 generated by VMD
 C         -12.590461      -30.181017       -7.789842
 N         -13.617368      -29.753323       -7.728386
 H         -11.302254      -30.256872       -4.996015
 H         -10.447629      -30.536398       -3.484293
 C         -10.786057      -31.060762       -4.475702
 C          -9.673632      -31.557972       -5.424140
 C         -11.749248      -32.188641       -4.019108
 C          -8.879036      -32.683228       -4.805295
 C         -10.879026      -33.299171       -3.427316
 C          -9.796261      -33.808605       -4.397058
 H          -8.983484      -30.730610       -5.755040
 H         -10.110836      -31.970539       -6.297843
 H         -12.528484      -31.788351       -3.343873
 H         -12.315190      -32.653561       -4.862215
 H          -8.259286      -32.276009       -3.975876
 H          -8.119744      -32.987598       -5.573489
 H         -11.482072      -34.123341       -3.073390
 H         -10.441257      -32.829945       -2.531878
 H          -9.194030      -34.686928       -4.003028
 H         -10.231829      -34.272026       -5.354894
