20
 generated by VMD
 C         -50.407284     -129.110413      -43.577553
 N         -50.851131     -129.588669      -44.592678
 H         -48.876171     -128.175873      -40.511986
 H         -50.148144     -128.665970      -42.600929
 C         -47.829979     -128.134048      -40.413712
 C         -47.122845     -129.477539      -40.160587
 C         -46.941860     -126.942078      -40.685966
 C         -46.219624     -129.730011      -41.333324
 C         -45.990150     -127.254524      -41.802006
 C         -45.198936     -128.568344      -41.563850
 H         -47.869778     -130.253540      -40.026482
 H         -46.580143     -129.479248      -39.146519
 H         -47.752895     -126.100197      -40.900105
 H         -46.457409     -126.798775      -39.764412
 H         -46.842682     -130.054642      -42.251942
 H         -45.635708     -130.781921      -41.299202
 H         -45.348965     -126.437866      -42.032425
 H         -46.521870     -127.232704      -42.736656
 H         -44.595566     -128.744843      -42.505894
 H         -44.569099     -128.457916      -40.682297
