20
 generated by VMD
 C         -12.540439      -30.212698       -7.867667
 N         -13.572001      -29.876047       -7.606556
 H         -11.387925      -30.279282       -5.051333
 H         -10.459010      -30.550495       -3.622467
 C         -10.830458      -31.082216       -4.588080
 C          -9.700812      -31.574409       -5.403183
 C         -11.717963      -32.192471       -4.068778
 C          -8.887080      -32.736214       -4.731315
 C         -10.935436      -33.361931       -3.527657
 C          -9.899391      -33.857868       -4.440882
 H          -9.078653      -30.679428       -5.627960
 H         -10.028376      -31.975443       -6.320390
 H         -12.486934      -31.794424       -3.385874
 H         -12.317398      -32.616375       -4.917914
 H          -8.466397      -32.281212       -3.789235
 H          -7.972538      -33.056213       -5.320210
 H         -11.653917      -34.143414       -3.310302
 H         -10.449964      -33.123219       -2.574253
 H          -9.415127      -34.801449       -4.027180
 H         -10.332325      -34.246319       -5.434130
