20
 generated by VMD
 C         -11.632433      -41.832825       -6.105740
 N         -10.867986      -41.537743       -6.875454
 H         -14.607884      -41.427250       -8.325650
 H         -15.351622      -40.557350       -9.807714
 C         -15.216045      -41.526863       -9.215075
 C         -16.654066      -41.971558       -8.713774
 C         -14.632210      -42.573826      -10.174735
 C         -17.583818      -42.549858       -9.822996
 C         -15.537017      -42.956764      -11.334311
 C         -16.798075      -43.540833      -10.688343
 H         -17.142210      -41.051311       -8.228769
 H         -16.574915      -42.662575       -7.835573
 H         -13.664827      -42.113785      -10.477180
 H         -14.356333      -43.466293       -9.571660
 H         -17.946835      -41.848454      -10.549424
 H         -18.410595      -43.072090       -9.341495
 H         -15.087227      -43.744591      -11.973843
 H         -15.768386      -42.100941      -11.923910
 H         -17.447969      -43.908501      -11.487296
 H         -16.534468      -44.382225      -10.098533
