20
 generated by VMD
 C         -33.769161      -97.030876      -26.159864
 N         -34.867302      -96.886078      -25.825550
 H         -35.185459      -94.461189      -27.448215
 H         -32.700432      -96.998657      -26.520685
 C         -35.107273      -94.074661      -28.491930
 C         -36.017559      -94.777115      -29.434896
 C         -33.790993      -93.722916      -28.925344
 C         -36.017029      -94.121841      -30.768969
 C         -33.721180      -93.069351      -30.374393
 C         -34.591190      -93.901627      -31.317579
 H         -37.044823      -94.884995      -29.030987
 H         -35.561714      -95.733841      -29.471310
 H         -33.273926      -93.066643      -28.237402
 H         -33.203533      -94.579468      -29.060701
 H         -36.568428      -93.191971      -30.810408
 H         -36.462090      -94.727386      -31.552120
 H         -32.586906      -92.922630      -30.497368
 H         -34.004345      -92.038460      -30.483921
 H         -34.342892      -93.395073      -32.351448
 H         -34.111633      -94.839516      -31.413622
