20
 generated by VMD
 C         -20.540632      -64.576210      -17.175791
 N         -20.013645      -64.894119      -16.179838
 H         -24.230202      -63.456188      -17.786894
 H         -20.939703      -64.064636      -17.941771
 C         -24.440201      -64.484909      -18.004021
 C         -24.759832      -64.758575      -19.490425
 C         -24.942953      -65.434967      -16.926620
 C         -24.600639      -66.204811      -19.738279
 C         -24.882986      -66.906898      -17.250566
 C         -25.269983      -67.122871      -18.691029
 H         -24.057035      -64.315933      -20.301382
 H         -25.805355      -64.411140      -19.496868
 H         -24.422070      -65.178986      -16.013502
 H         -26.056242      -65.133286      -16.801571
 H         -23.557858      -66.551010      -19.769976
 H         -25.037842      -66.457619      -20.680447
 H         -25.480583      -67.499420      -16.511686
 H         -23.856117      -67.226288      -17.136061
 H         -24.982176      -68.185799      -19.027338
 H         -26.349628      -67.103355      -18.893335
