20
 generated by VMD
 C         -69.765793     -180.974625      -62.219463
 N         -70.374176     -180.012238      -62.499069
 H         -66.833923     -181.657333      -60.333858
 H         -69.104774     -181.841232      -62.051678
 C         -66.309837     -180.667419      -60.522057
 C         -64.859550     -180.530960      -60.400883
 C         -67.245346     -179.554245      -60.280289
 C         -64.421532     -179.192719      -61.014336
 C         -66.676331     -178.266205      -60.962696
 C         -65.237297     -178.057373      -60.483948
 H         -64.438370     -181.439713      -60.887753
 H         -64.638680     -180.493134      -59.332150
 H         -68.311676     -179.588486      -60.657009
 H         -67.400177     -179.357315      -59.167065
 H         -64.364891     -179.183136      -62.086388
 H         -63.355331     -178.931854      -60.843758
 H         -67.290581     -177.475311      -60.577374
 H         -66.793243     -178.265930      -62.050896
 H         -64.899597     -176.889984      -60.701591
 H         -65.150749     -178.114594      -59.349895
