20
 generated by VMD
 C         -11.952473      -31.500647       -8.258419
 N         -12.063623      -30.649393       -7.542723
 H         -11.503531      -34.673882       -7.888439
 H         -12.863170      -34.070461       -6.965693
 C         -11.939503      -34.655918       -6.890565
 C         -10.832535      -33.970310       -6.089331
 C         -12.161238      -36.045860       -6.296433
 C         -11.235146      -33.715088       -4.598178
 C         -12.543211      -35.926666       -4.820298
 C         -11.532717      -35.104694       -4.008561
 H         -10.508142      -33.048649       -6.460689
 H          -9.911564      -34.600746       -6.136566
 H         -12.959827      -36.556023       -6.831552
 H         -11.239883      -36.643223       -6.417935
 H         -12.098615      -33.000385       -4.564013
 H         -10.393922      -33.264847       -4.086741
 H         -12.618193      -36.912102       -4.431092
 H         -13.609259      -35.439693       -4.771477
 H         -11.900583      -34.989037       -3.010093
 H         -10.610640      -35.695679       -3.932921
