20
 generated by VMD
 C         -66.823959     -189.975601      -66.890915
 N         -67.488083     -190.127304      -65.979179
 H         -70.519646     -190.729095      -66.339966
 H         -66.382675     -189.817154      -67.901878
 C         -71.145119     -190.389511      -65.564720
 C         -72.399292     -191.163330      -65.129951
 C         -70.455788     -189.429443      -64.532249
 C         -73.222755     -190.257431      -64.062454
 C         -71.487419     -188.484070      -64.018478
 C         -72.440292     -189.360626      -63.176270
 H         -72.129677     -192.092514      -64.604897
 H         -73.042900     -191.211578      -66.019356
 H         -70.049278     -190.136307      -63.828548
 H         -69.670746     -188.890030      -65.189484
 H         -73.766518     -190.931168      -63.449787
 H         -73.833672     -189.513519      -64.641525
 H         -72.058159     -188.043228      -64.911224
 H         -71.026558     -187.676346      -63.481335
 H         -71.863815     -189.782272      -62.330612
 H         -73.280838     -188.732193      -62.646416
