20
 generated by VMD
 C         -57.894737     -168.315582      -55.080326
 N         -56.780758     -168.545395      -54.878334
 H         -61.563171     -167.514801      -55.386990
 H         -58.919373     -168.024689      -55.191486
 C         -62.265598     -166.953278      -55.995106
 C         -62.655502     -167.529892      -57.373890
 C         -63.053677     -165.728226      -55.580170
 C         -64.148872     -167.479996      -57.718204
 C         -64.613747     -165.692932      -55.974586
 C         -64.782028     -166.063202      -57.460846
 H         -62.303761     -168.652557      -57.247547
 H         -62.068180     -167.192276      -58.154411
 H         -62.889526     -165.657593      -54.421787
 H         -62.538864     -164.867157      -56.070827
 H         -64.727516     -168.263870      -57.157120
 H         -64.333458     -167.740036      -58.814003
 H         -65.005737     -164.759781      -55.541286
 H         -65.232368     -166.333969      -55.369240
 H         -65.772507     -166.181335      -57.768932
 H         -64.225395     -165.420044      -58.103691
