20
 generated by VMD
 C         -22.190695      -52.937473      -12.508839
 N         -23.175716      -52.460220      -12.714020
 H         -20.273031      -54.139332      -13.995618
 H         -21.112747      -53.394627      -12.147551
 C         -19.344912      -53.718826      -13.639088
 C         -18.769508      -52.326790      -13.803530
 C         -18.343391      -54.838974      -13.494023
 C         -17.328293      -52.343372      -14.283037
 C         -17.229500      -54.347694      -12.625736
 C         -16.511278      -53.198929      -13.359948
 H         -18.764311      -51.904602      -12.827462
 H         -19.350864      -51.794262      -14.584341
 H         -18.728130      -55.766010      -13.022843
 H         -18.077393      -55.180992      -14.474456
 H         -16.958826      -51.322617      -14.416397
 H         -17.332470      -52.796799      -15.280726
 H         -16.569998      -55.196869      -12.415730
 H         -17.607843      -54.037003      -11.639429
 H         -16.059885      -52.541992      -12.604215
 H         -15.711942      -53.689335      -13.914589
