20
 generated by VMD
 C         -49.352222     -132.697174      -47.029121
 N         -50.083897     -131.873398      -47.068935
 H         -47.610123     -134.197617      -44.318249
 H         -48.672920     -133.425354      -46.714085
 C         -48.533947     -134.527710      -43.785042
 C         -49.069618     -135.928558      -43.860580
 C         -49.337437     -133.493378      -43.003563
 C         -49.936340     -136.392487      -42.647091
 C         -50.179153     -134.105865      -41.848248
 C         -51.004589     -135.284561      -42.286270
 H         -48.209713     -136.555176      -43.908707
 H         -49.662617     -136.058609      -44.837421
 H         -48.669079     -132.683838      -42.708588
 H         -50.156055     -133.049194      -43.724979
 H         -49.454178     -136.553192      -41.680744
 H         -50.433193     -137.359436      -42.739517
 H         -51.023842     -133.469650      -41.587597
 H         -49.591423     -134.235550      -41.003807
 H         -51.519131     -135.550064      -41.399727
 H         -51.635052     -134.930038      -43.113411
