20
 generated by VMD
 C         -80.019264     -205.435074      -71.867516
 N         -79.748909     -206.579010      -71.712547
 H         -77.374199     -203.641815      -70.767563
 H         -80.416367     -204.391022      -71.719612
 C         -76.429405     -204.168701      -70.895798
 C         -75.096596     -203.569031      -71.275696
 C         -76.340584     -205.613449      -70.553841
 C         -74.329140     -203.451431      -69.897560
 C         -75.363182     -205.846252      -69.358261
 C         -74.135551     -204.896973      -69.339607
 H         -75.150322     -202.522247      -71.668404
 H         -74.546822     -204.189880      -71.939369
 H         -77.365807     -205.966736      -70.140297
 H         -76.028893     -206.346542      -71.344208
 H         -74.861244     -202.721680      -69.238739
 H         -73.318359     -202.970688      -69.922218
 H         -74.905289     -206.890945      -69.299446
 H         -75.967232     -205.755600      -68.490875
 H         -73.808662     -204.826111      -68.263321
 H         -73.338715     -205.432602      -69.775200
