20
 generated by VMD
 C         -50.931599     -128.119141      -41.747578
 N         -51.967239     -128.566254      -41.854019
 H         -47.476017     -128.067932      -41.280724
 H         -50.081734     -127.506332      -41.474194
 C         -46.711750     -127.399864      -40.766705
 C         -45.483124     -127.891426      -40.058708
 C         -46.848019     -125.966614      -41.182114
 C         -44.254093     -127.419930      -40.832699
 C         -45.570900     -125.582115      -41.896458
 C         -44.277370     -125.882935      -41.125393
 H         -45.635338     -128.910980      -40.152691
 H         -45.487034     -127.535347      -38.987881
 H         -47.617115     -125.894852      -41.920773
 H         -47.196438     -125.526566      -40.265903
 H         -44.333847     -127.910156      -41.824471
 H         -43.396198     -127.807388      -40.306705
 H         -45.837440     -124.561562      -42.120049
 H         -45.591846     -126.005615      -42.880363
 H         -43.368896     -125.437546      -41.661301
 H         -44.260063     -125.328865      -40.123173
