20
 generated by VMD
 C         -50.921356     -130.913010      -45.977421
 N         -50.444469     -129.986206      -46.576096
 H         -48.004272     -132.125946      -44.463165
 H         -50.939949     -131.582092      -45.157928
 C         -48.077057     -132.297043      -43.418999
 C         -48.525864     -133.730423      -42.927872
 C         -48.216694     -131.101547      -42.603287
 C         -48.173939     -133.907669      -41.424515
 C         -47.822330     -131.450760      -41.153450
 C         -48.572964     -132.645157      -40.588161
 H         -47.892391     -134.384094      -43.555676
 H         -49.623062     -133.829346      -43.185562
 H         -47.611633     -130.234268      -42.759914
 H         -49.300182     -130.749649      -42.552914
 H         -47.067081     -134.093140      -41.427258
 H         -48.622204     -134.839127      -41.021160
 H         -48.027164     -130.492279      -40.515774
 H         -46.749752     -131.578522      -41.009453
 H         -48.211735     -133.044189      -39.654968
 H         -49.686417     -132.508102      -40.694984
