20
 generated by VMD
 C         -63.753803     -174.886978      -56.033344
 N         -62.758327     -175.342560      -56.464901
 H         -66.289673     -173.413345      -58.480797
 H         -64.613731     -174.372437      -55.613979
 C         -65.666878     -172.670135      -58.886173
 C         -65.715614     -171.301102      -58.399403
 C         -64.568001     -172.995453      -59.798241
 C         -64.281380     -170.687729      -58.190186
 C         -63.198620     -172.276291      -59.657104
 C         -63.443760     -170.723938      -59.435215
 H         -66.377327     -171.282455      -57.463528
 H         -66.278946     -170.638458      -59.137489
 H         -64.277199     -174.055283      -59.578995
 H         -64.860329     -173.006210      -60.911694
 H         -63.806290     -171.270172      -57.303818
 H         -64.435478     -169.630768      -57.795914
 H         -62.656445     -172.386383      -60.602180
 H         -62.640694     -172.733765      -58.843819
 H         -62.434082     -170.322891      -59.180206
 H         -63.845062     -170.301422      -60.365677
