20
 generated by VMD
 C         -41.014542     -104.308762      -36.284874
 N         -41.912468     -105.014130      -36.386173
 H         -38.207905     -104.534851      -33.736847
 H         -40.018379     -103.930473      -36.231827
 C         -38.340790     -105.346046      -33.077663
 C         -37.060894     -105.716843      -32.206917
 C         -39.397671     -106.440468      -33.347057
 C         -37.343655     -106.667496      -31.102016
 C         -39.466442     -107.497009      -32.274693
 C         -38.060005     -107.885010      -31.663254
 H         -36.665211     -104.761322      -31.893377
 H         -36.206413     -106.120232      -32.896641
 H         -40.329605     -105.911362      -33.485249
 H         -39.295815     -107.004753      -34.320339
 H         -37.865116     -106.355347      -30.192354
 H         -36.422050     -107.012955      -30.632189
 H         -39.839325     -108.414406      -32.584496
 H         -39.999237     -107.011017      -31.475731
 H         -38.169468     -108.744888      -30.989651
 H         -37.345699     -108.159828      -32.446819
