20
 generated by VMD
 C         -31.290468      -75.746346      -21.569359
 N         -32.297375      -75.252792      -21.316654
 H         -27.819237      -75.217659      -19.824175
 H         -30.415707      -76.158569      -22.109211
 C         -26.833811      -75.195045      -20.427013
 C         -26.451717      -76.364937      -21.404226
 C         -25.904747      -74.045486      -20.460228
 C         -25.928858      -75.874825      -22.722898
 C         -25.315676      -73.635796      -21.769405
 C         -24.870567      -74.798607      -22.635620
 H         -27.285721      -76.930740      -21.510637
 H         -25.580282      -76.894691      -21.050596
 H         -26.513140      -73.247536      -19.905798
 H         -25.041729      -74.421898      -19.856949
 H         -26.834824      -75.537804      -23.298643
 H         -25.517818      -76.751030      -23.255074
 H         -24.561443      -72.833672      -21.556335
 H         -26.118340      -73.080780      -22.311443
 H         -24.512957      -74.329102      -23.561850
 H         -23.887222      -75.229317      -22.302309
