20
 generated by VMD
 C         -59.892471     -152.114288      -50.257732
 N         -58.919018     -152.714417      -50.104347
 H         -56.713711     -150.992249      -48.893192
 H         -60.851925     -151.606537      -50.469360
 C         -55.753647     -150.690918      -49.241074
 C         -54.820286     -151.794037      -49.618298
 C         -55.266212     -149.359253      -49.192520
 C         -54.457047     -151.359375      -51.060192
 C         -54.830051     -148.894669      -50.544773
 C         -53.844086     -149.860794      -51.133625
 H         -55.292336     -152.775299      -49.643299
 H         -54.022129     -151.793472      -48.910286
 H         -56.117405     -148.680191      -49.082760
 H         -54.599003     -149.143829      -48.370331
 H         -55.342056     -151.578949      -51.636745
 H         -53.614799     -151.998154      -51.388657
 H         -54.354996     -147.858231      -50.550873
 H         -55.619564     -148.931946      -51.198174
 H         -53.504433     -149.595657      -52.141354
 H         -52.898129     -149.879990      -50.501480
