20
 generated by VMD
 C         -47.915192     -134.517578      -46.979218
 N         -48.010422     -134.054230      -48.051628
 H         -50.167400     -134.301437      -44.674637
 H         -48.150448     -135.161331      -46.158886
 C         -50.490215     -135.265289      -44.197281
 C         -50.796696     -136.524323      -45.052624
 C         -51.097736     -135.043045      -42.828903
 C         -50.849571     -137.747604      -44.172489
 C         -51.270306     -136.379181      -42.067261
 C         -51.788597     -137.530930      -42.980556
 H         -49.998646     -136.502487      -45.887474
 H         -51.741627     -136.343796      -45.518700
 H         -50.485363     -134.301712      -42.212521
 H         -52.020607     -134.585571      -43.152069
 H         -49.916100     -138.083755      -43.724335
 H         -51.231930     -138.598129      -44.804089
 H         -51.841896     -136.335587      -41.121300
 H         -50.315777     -136.747635      -41.735306
 H         -51.814049     -138.379715      -42.344654
 H         -52.902248     -137.239578      -43.292641
