20
 generated by VMD
 C         -40.724831     -100.213402      -30.160028
 N         -40.902622     -100.369698      -29.041531
 H         -37.438786      -99.901566      -30.431639
 H         -40.425453      -99.900757      -31.191900
 C         -36.339424      -99.927361      -30.827618
 C         -35.963974      -99.803284      -32.258045
 C         -35.366802      -99.936195      -29.759430
 C         -35.149944      -98.553917      -32.512917
 C         -34.378326      -98.726990      -30.018381
 C         -33.897415      -98.729233      -31.490070
 H         -36.872196      -99.820808      -32.805008
 H         -35.410549     -100.720573      -32.618462
 H         -35.808125      -99.980049      -28.813995
 H         -34.869965     -100.930092      -29.886318
 H         -35.660721      -97.623428      -32.302223
 H         -34.708023      -98.527046      -33.465946
 H         -33.556286      -98.593971      -29.315697
 H         -34.787231      -97.705101      -29.852516
 H         -32.987019      -98.096130      -31.686871
 H         -33.494083      -99.751648      -31.742329
