20
 generated by VMD
 C         -68.226631     -195.472778      -64.665222
 N         -68.704163     -196.508026      -64.764771
 H         -71.182732     -194.286240      -67.080452
 H         -67.786598     -194.508667      -64.607468
 C         -72.167366     -193.774933      -67.311630
 C         -72.154045     -192.337799      -66.797485
 C         -73.452469     -194.590240      -67.626404
 C         -73.431717     -192.011368      -66.083122
 C         -74.655235     -193.949524      -67.067947
 C         -74.653999     -192.447540      -66.926407
 H         -72.087372     -191.695847      -67.578018
 H         -71.249336     -192.140732      -66.179787
 H         -73.458862     -194.825516      -68.625557
 H         -73.390221     -195.548645      -67.171883
 H         -73.432533     -190.919373      -65.842880
 H         -73.548264     -192.522980      -65.095543
 H         -74.733482     -194.383270      -66.064102
 H         -75.585831     -194.269272      -67.623138
 H         -74.525322     -191.901474      -67.810448
 H         -75.599220     -191.971512      -66.407722
