20
 generated by VMD
 C         -23.484631      -55.012989      -14.997010
 N         -22.750444      -54.767529      -15.828093
 H         -20.338449      -54.792759      -15.276962
 H         -24.371834      -55.484726      -14.315174
 C         -19.459372      -55.216644      -14.884715
 C         -19.050432      -54.806564      -13.537946
 C         -18.961042      -56.608032      -15.360291
 C         -18.983557      -56.017868      -12.528336
 C         -19.441921      -57.551800      -14.388822
 C         -18.580885      -57.362762      -13.138872
 H         -19.752567      -54.041969      -13.147784
 H         -18.069313      -54.188267      -13.544213
 H         -19.235975      -56.899361      -16.355141
 H         -17.771757      -56.535297      -15.473594
 H         -20.042366      -56.126308      -12.287357
 H         -18.357479      -55.779335      -11.621502
 H         -19.223574      -58.529690      -14.771704
 H         -20.481396      -57.449165      -14.143538
 H         -18.922878      -58.145973      -12.454399
 H         -17.473011      -57.451935      -13.350763
