20
 generated by VMD
 C         -41.214394     -102.386864      -35.309563
 N         -41.564217     -103.277489      -35.945988
 H         -39.622440     -104.949768      -33.390079
 H         -41.242550     -101.491333      -34.630455
 C         -38.610439     -105.049416      -32.830563
 C         -37.304817     -104.348343      -32.895969
 C         -38.895958     -106.191437      -31.785078
 C         -36.459312     -104.494896      -31.611872
 C         -37.891186     -106.380775      -30.719299
 C         -36.514267     -105.940643      -31.203913
 H         -37.400208     -103.266441      -33.007751
 H         -36.733288     -104.812141      -33.802574
 H         -39.897610     -106.092529      -31.269363
 H         -38.984058     -107.099472      -32.454067
 H         -36.958553     -103.816818      -30.816132
 H         -35.409477     -104.155487      -31.852522
 H         -37.721504     -107.335175      -30.316034
 H         -38.252747     -105.723488      -29.837740
 H         -35.870720     -106.052147      -30.332808
 H         -36.085999     -106.624771      -32.014385
