20
 generated by VMD
 C         -50.575562     -129.406540      -43.172874
 N         -50.369446     -128.282104      -42.906418
 H         -48.474762     -128.150726      -40.355862
 H         -50.880463     -130.450180      -43.231495
 C         -47.467560     -127.824051      -40.500645
 C         -46.362171     -128.705063      -39.925491
 C         -47.155502     -126.404312      -40.918148
 C         -45.365818     -128.759918      -40.993656
 C         -46.199234     -126.623474      -42.086708
 C         -45.027672     -127.453369      -41.550892
 H         -46.871120     -129.643173      -39.569054
 H         -45.957687     -128.177109      -39.095776
 H         -48.013031     -125.674576      -41.252174
 H         -46.684765     -125.863251      -40.159252
 H         -45.775043     -129.359680      -41.787018
 H         -44.493790     -129.323502      -40.691738
 H         -45.878052     -125.595879      -42.450867
 H         -46.755325     -127.180382      -42.967690
 H         -44.319290     -127.675262      -42.320843
 H         -44.532528     -126.819702      -40.853539
