20
 generated by VMD
 C         -28.208948      -83.659439      -27.320969
 N         -27.377300      -83.434975      -26.507984
 H         -31.424934      -84.264549      -26.405230
 H         -28.823174      -83.969955      -28.132309
 C         -31.570984      -85.216179      -25.786226
 C         -31.539070      -85.217079      -24.250570
 C         -32.127926      -86.403381      -26.499857
 C         -32.756245      -85.895866      -23.674393
 C         -33.259747      -87.075081      -25.734873
 C         -33.013863      -87.221146      -24.251020
 H         -31.234983      -84.228104      -23.945995
 H         -30.710073      -85.975883      -24.046400
 H         -32.377300      -86.264679      -27.607584
 H         -31.308666      -87.112518      -26.390558
 H         -33.605827      -85.225594      -23.882299
 H         -32.614517      -86.028618      -22.558786
 H         -33.476707      -88.086288      -26.132263
 H         -34.132851      -86.511086      -25.809156
 H         -33.918736      -87.471115      -23.843866
 H         -32.342976      -88.083618      -24.210209
