20
 generated by VMD
 C         -11.964662      -25.972239       -0.085332
 N         -12.937585      -26.208128       -0.551793
 H          -9.776572      -26.597727       -3.105017
 H          -9.528661      -25.771273       -4.606577
 C          -9.030293      -26.174009       -3.733960
 C          -8.019094      -27.297235       -4.119324
 C          -8.343208      -25.144335       -2.812110
 C          -6.771167      -26.622932       -4.733815
 C          -7.141503      -24.487244       -3.589794
 C          -6.134655      -25.590197       -3.807090
 H          -8.419703      -27.985041       -4.870858
 H          -7.840493      -28.027113       -3.323946
 H          -9.105563      -24.345068       -2.599614
 H          -8.035708      -25.505943       -1.850915
 H          -6.868399      -26.268074       -5.755224
 H          -6.064199      -27.419857       -4.884890
 H          -6.712814      -23.740646       -2.934852
 H          -7.402601      -23.983955       -4.519966
 H          -5.206207      -25.231815       -4.309590
 H          -5.788797      -26.078342       -2.879930
