20
 generated by VMD
 C         -60.187004     -157.323425      -56.176239
 N         -59.602551     -158.225769      -56.677841
 H         -60.238705     -157.669098      -52.647926
 H         -60.730404     -156.440002      -55.792984
 C         -59.323689     -158.239426      -52.778988
 C         -58.044724     -157.826859      -52.343208
 C         -59.642574     -159.616043      -53.167248
 C         -57.727272     -158.771698      -51.151081
 C         -59.380726     -160.477432      -51.981014
 C         -57.968143     -160.228577      -51.422974
 H         -58.109821     -156.805756      -51.963612
 H         -57.274426     -157.727158      -53.029335
 H         -60.694225     -159.553009      -53.362663
 H         -58.998882     -160.001099      -54.018421
 H         -58.421764     -158.458893      -50.424465
 H         -56.786583     -158.751251      -50.700256
 H         -59.405792     -161.518799      -52.272503
 H         -60.164925     -160.311249      -51.330326
 H         -57.791817     -160.864319      -50.644081
 H         -57.160816     -160.532776      -52.099003
