20
 generated by VMD
 C         -16.386244      -47.663006       -7.229307
 N         -16.119602      -46.574207       -7.159871
 H         -16.895939      -48.345909      -10.201083
 H         -15.522243      -48.117531      -11.339247
 C         -16.481686      -47.754932      -11.009768
 C         -16.315609      -46.289970      -10.539279
 C         -17.437359      -47.746944      -12.174524
 C         -15.997084      -45.246056      -11.663026
 C         -16.891436      -46.755188      -13.236688
 C         -16.843824      -45.297947      -12.886892
 H         -15.596931      -46.229733       -9.723728
 H         -17.259235      -45.922787      -10.016133
 H         -17.436869      -48.743370      -12.658324
 H         -18.498009      -47.622211      -11.939783
 H         -14.976748      -45.456173      -11.997661
 H         -15.898221      -44.247986      -11.209366
 H         -17.614677      -47.014778      -14.106703
 H         -15.895282      -47.038452      -13.591814
 H         -16.399897      -44.695251      -13.687103
 H         -17.851868      -44.851952      -12.715450
