20
 generated by VMD
 C         -58.552280     -160.605698      -56.833820
 N         -58.619568     -159.868484      -57.790691
 H         -58.891872     -163.412277      -54.966606
 H         -58.482693     -161.296112      -55.964775
 C         -59.740173     -163.460114      -54.303276
 C         -59.537739     -163.145020      -52.878231
 C         -61.088295     -163.424042      -54.813675
 C         -60.434093     -162.209488      -52.154449
 C         -61.876057     -162.282257      -54.224781
 C         -61.813316     -162.205383      -52.689125
 H         -58.477962     -162.867676      -52.791752
 H         -59.567005     -164.081985      -52.363834
 H         -61.054523     -163.280975      -55.943321
 H         -61.532421     -164.391022      -54.471905
 H         -59.974419     -161.260971      -52.201797
 H         -60.444218     -162.452499      -51.046524
 H         -62.932278     -162.279922      -54.347290
 H         -61.669628     -161.434357      -54.811779
 H         -62.280029     -161.241669      -52.362251
 H         -62.387604     -162.971085      -52.219360
