20
 generated by VMD
 C         -70.032051     -184.124191      -65.966209
 N         -69.005066     -183.918686      -66.498497
 H         -69.492966     -183.930695      -63.425518
 H         -70.968742     -184.374039      -65.383797
 C         -68.862495     -183.947037      -62.563751
 C         -69.157135     -184.720856      -61.340206
 C         -67.992409     -182.613892      -62.494328
 C         -67.823830     -184.726303      -60.522739
 C         -66.904854     -182.577591      -61.363663
 C         -67.346657     -183.336075      -60.190178
 H         -69.545120     -185.683731      -61.520813
 H         -69.967445     -184.233292      -60.705212
 H         -67.475296     -182.437241      -63.541336
 H         -68.584465     -181.721451      -62.386948
 H         -67.024033     -185.365143      -60.890583
 H         -68.177780     -185.111526      -59.551479
 H         -66.740417     -181.468384      -61.143166
 H         -65.850334     -182.849335      -61.705090
 H         -66.602814     -183.310730      -59.349983
 H         -68.257004     -182.795929      -59.918457
