20
 generated by VMD
 C         -57.641251     -166.046936      -56.498642
 N         -58.137745     -166.879883      -55.867096
 H         -60.736076     -165.060989      -54.440903
 H         -57.105694     -165.402451      -57.149445
 C         -61.588333     -165.418610      -55.042015
 C         -61.776188     -166.806152      -55.654903
 C         -62.459194     -164.202194      -55.446583
 C         -63.286060     -167.053452      -55.877956
 C         -63.929134     -164.639526      -55.644829
 C         -63.951252     -165.857193      -56.509502
 H         -61.251919     -167.563354      -55.116165
 H         -61.049080     -166.792435      -56.490166
 H         -62.384140     -163.444794      -54.640198
 H         -62.041050     -163.757156      -56.337521
 H         -63.778877     -167.179733      -54.971886
 H         -63.351967     -167.925720      -56.528782
 H         -64.507477     -163.888367      -56.115509
 H         -64.517815     -164.704971      -54.789761
 H         -64.967697     -166.234283      -56.677017
 H         -63.497246     -165.652176      -57.474098
