20
 generated by VMD
 C         -11.968719      -25.722960       -0.193401
 N         -13.000042      -26.133680       -0.324990
 H          -9.567469      -26.788935       -2.815478
 H          -9.519177      -25.792828       -4.232980
 C          -8.878371      -26.236063       -3.472162
 C          -7.817781      -27.247091       -3.939589
 C          -8.222014      -25.087152       -2.720100
 C          -6.814178      -26.447582       -4.884035
 C          -7.152894      -24.317205       -3.544570
 C          -6.114872      -25.355543       -4.013082
 H          -8.329920      -27.988207       -4.638797
 H          -7.352366      -27.668293       -3.067291
 H          -9.049559      -24.410059       -2.447395
 H          -7.697924      -25.491987       -1.826727
 H          -7.305185      -26.022842       -5.766452
 H          -6.033869      -27.138197       -5.158441
 H          -6.717990      -23.526501       -2.919746
 H          -7.613786      -23.740726       -4.387813
 H          -5.396702      -24.807245       -4.672065
 H          -5.468714      -25.751600       -3.207006
