20
 generated by VMD
 C         -50.656227     -130.897354      -46.352779
 N         -50.280113     -130.961487      -47.491905
 H         -48.253319     -132.078568      -44.251305
 H         -51.440693     -130.673798      -45.597919
 C         -48.537727     -132.362030      -43.285408
 C         -49.151913     -133.674103      -43.161076
 C         -48.438225     -131.404755      -42.136040
 C         -48.476662     -134.394348      -41.899841
 C         -47.850334     -132.097488      -40.906548
 C         -48.514729     -133.446701      -40.672672
 H         -49.022507     -134.291489      -44.026291
 H         -50.266838     -133.485703      -42.989880
 H         -47.751541     -130.506775      -42.304367
 H         -49.365082     -130.963120      -41.851261
 H         -47.382057     -134.694687      -42.027538
 H         -49.111439     -135.310623      -41.703285
 H         -48.129993     -131.513977      -40.033806
 H         -46.673187     -132.096359      -40.920536
 H         -47.943382     -133.985367      -39.857998
 H         -49.523930     -133.424179      -40.393581
