20
 generated by VMD
 C         -62.643269     -172.096985      -55.316650
 N         -61.948402     -172.979645      -55.339756
 H         -61.620640     -171.305862      -58.013939
 H         -63.353333     -171.335617      -55.170078
 C         -62.457684     -170.647125      -58.180115
 C         -62.370918     -169.069565      -57.981384
 C         -63.812351     -171.185928      -58.642574
 C         -63.637768     -168.280853      -58.255569
 C         -64.930367     -170.217819      -58.776733
 C         -64.839203     -169.132217      -57.791607
 H         -61.566666     -168.613632      -58.727455
 H         -61.998383     -168.894760      -57.027206
 H         -63.756149     -171.794189      -59.559509
 H         -64.050446     -171.977051      -57.867989
 H         -63.851185     -168.121796      -59.308388
 H         -63.744431     -167.235840      -57.834599
 H         -65.897896     -170.723236      -58.733459
 H         -64.922844     -169.902100      -59.798477
 H         -65.789482     -168.549164      -57.918007
 H         -64.682449     -169.315353      -56.761105
