20
 generated by VMD
 C         -11.598586      -33.526131       -8.797910
 N         -10.455691      -33.466106       -8.907921
 H         -12.343184      -34.813171       -7.575695
 H         -12.819038      -34.787064       -5.786679
 C         -12.633631      -35.477032       -6.640876
 C         -11.603333      -36.557621       -6.418015
 C         -13.999815      -36.086750       -6.918133
 C         -12.101373      -37.650501       -5.387412
 C         -14.481585      -37.142292       -5.926070
 C         -13.443667      -38.245960       -5.734540
 H         -10.710244      -36.046001       -6.023551
 H         -11.243879      -37.015205       -7.315289
 H         -14.800891      -35.296734       -6.910342
 H         -14.107541      -36.459618       -7.934330
 H         -12.078716      -37.204990       -4.372839
 H         -11.296363      -38.366394       -5.323998
 H         -15.427112      -37.536446       -6.227260
 H         -14.727041      -36.649586       -4.981050
 H         -13.752921      -38.960697       -4.939116
 H         -13.442209      -38.811481       -6.659595
