20
 generated by VMD
 C         -78.664352     -209.623825      -77.323860
 N         -79.048668     -209.257629      -76.339104
 H         -78.270638     -210.127823      -73.567429
 H         -78.271317     -209.897614      -78.354065
 C         -78.366600     -210.908447      -72.856773
 C         -77.427330     -211.254791      -71.775627
 C         -79.534088     -211.886383      -72.971214
 C         -77.963196     -211.889877      -70.481911
 C         -80.166176     -212.313828      -71.668709
 C         -79.190102     -212.937027      -70.684113
 H         -76.859741     -210.314468      -71.446678
 H         -76.746162     -211.965851      -72.319389
 H         -80.237900     -211.568344      -73.685097
 H         -79.043068     -212.823227      -73.315788
 H         -78.480583     -211.138107      -69.828384
 H         -77.073036     -212.324860      -69.980965
 H         -81.119667     -212.790848      -71.893311
 H         -80.569580     -211.394836      -71.222374
 H         -79.632637     -213.214249      -69.680687
 H         -78.957451     -213.910889      -71.066246
