20
 generated by VMD
 C         -22.176903      -55.131184      -17.379370
 N         -22.620481      -55.182426      -18.397436
 H         -20.575455      -56.128563      -13.965245
 H         -21.895948      -54.846336      -16.258383
 C         -20.572197      -57.272945      -14.046424
 C         -20.975723      -58.118950      -12.816298
 C         -19.832968      -57.867241      -15.379298
 C         -20.912399      -59.745087      -13.075288
 C         -19.754320      -59.401714      -15.416782
 C         -19.736395      -60.030796      -13.995455
 H         -21.977356      -57.833225      -12.508922
 H         -20.272907      -57.832264      -12.074959
 H         -20.165403      -57.553967      -16.349955
 H         -18.741179      -57.453983      -15.301063
 H         -21.853935      -60.044533      -13.615071
 H         -20.835463      -60.404846      -12.165427
 H         -18.879736      -59.698921      -16.031967
 H         -20.596983      -59.789322      -16.050987
 H         -19.598629      -61.117069      -14.039080
 H         -18.849573      -59.630119      -13.486293
