20
 generated by VMD
 C          -8.705200      -23.575747        2.422452
 N          -8.022391      -24.234390        3.028856
 H          -8.693176      -23.535721       -1.371284
 H          -9.323354      -22.632444       -2.781340
 C          -8.409219      -22.952419       -2.303054
 C          -7.718543      -23.940102       -3.273339
 C          -7.494517      -21.781334       -1.931945
 C          -7.173276      -23.278690       -4.543667
 C          -6.946893      -21.043621       -3.175113
 C          -6.218268      -22.074326       -4.128207
 H          -8.533183      -24.706501       -3.567905
 H          -6.887111      -24.437796       -2.730591
 H          -8.004201      -21.055058       -1.269104
 H          -6.691344      -22.136082       -1.288145
 H          -7.940001      -22.912590       -5.201419
 H          -6.527852      -24.002939       -5.085695
 H          -6.297347      -20.245455       -2.846196
 H          -7.742450      -20.567179       -3.745355
 H          -5.873559      -21.521353       -5.009265
 H          -5.250440      -22.483332       -3.746425
