20
 generated by VMD
 C         -59.884159     -152.107681      -50.317883
 N         -58.941551     -152.743546      -50.088341
 H         -56.769249     -150.902344      -48.834171
 H         -60.826851     -151.613327      -50.436134
 C         -55.801617     -150.723618      -49.309433
 C         -54.814484     -151.763199      -49.673683
 C         -55.288456     -149.313583      -49.120232
 C         -54.388348     -151.343307      -50.984631
 C         -54.801884     -148.944153      -50.532970
 C         -53.872292     -149.978256      -51.180424
 H         -55.271080     -152.794937      -49.740574
 H         -54.067036     -151.840485      -48.901939
 H         -56.180573     -148.757217      -48.899609
 H         -54.533573     -149.109055      -48.331078
 H         -55.238113     -151.409607      -51.690777
 H         -53.704716     -152.058838      -51.471245
 H         -54.391617     -148.011093      -50.470928
 H         -55.789558     -148.863571      -51.222755
 H         -53.740692     -149.714645      -52.214668
 H         -52.881763     -149.818253      -50.575653
