20
 generated by VMD
 C         -12.803400      -43.288303       -6.923870
 N         -12.766239      -42.167820       -6.812164
 H         -14.623806      -43.925312       -8.408648
 H         -14.555373      -42.529167       -9.557660
 C         -15.059012      -43.400150       -9.278214
 C         -16.570553      -43.109642       -8.979292
 C         -14.971482      -44.450207      -10.429517
 C         -17.300125      -42.584728      -10.213485
 C         -15.519127      -43.866264      -11.753794
 C         -16.953009      -43.394127      -11.477529
 H         -16.728033      -42.429585       -8.105748
 H         -17.053549      -44.073833       -8.692419
 H         -13.918510      -44.629528      -10.568783
 H         -15.540757      -45.372009      -10.266965
 H         -16.934259      -41.556740      -10.395885
 H         -18.398655      -42.546680      -10.006511
 H         -15.314544      -44.635670      -12.588872
 H         -14.972438      -42.996731      -12.017972
 H         -17.249674      -42.712845      -12.283026
 H         -17.593349      -44.231857      -11.565645
