20
 generated by VMD
 C         -19.880421      -61.387108      -16.889790
 N         -19.704596      -60.534416      -16.077705
 H         -22.152266      -62.340488      -18.312740
 H         -20.139769      -62.159512      -17.562187
 C         -22.895761      -62.843845      -17.756332
 C         -24.061172      -63.220814      -18.659327
 C         -22.832230      -62.936588      -16.244881
 C         -24.498837      -64.591270      -18.086653
 C         -23.496679      -64.229988      -15.793827
 C         -24.670881      -64.815880      -16.628986
 H         -23.677353      -63.345692      -19.666126
 H         -24.781261      -62.481403      -18.612055
 H         -21.768003      -63.126724      -15.926573
 H         -23.242290      -62.075867      -15.785923
 H         -23.786804      -65.411034      -18.447708
 H         -25.362370      -64.867569      -18.678740
 H         -23.827204      -64.121254      -14.723194
 H         -22.699163      -64.976257      -15.886614
 H         -24.903231      -65.852882      -16.220421
 H         -25.510281      -64.281281      -16.208569
