20
 generated by VMD
 C         -31.890757      -76.357254      -24.581926
 N         -31.686468      -76.828003      -25.650881
 H         -29.125401      -76.837517      -22.358877
 H         -31.940382      -75.946655      -23.657555
 C         -28.494007      -77.751518      -22.236677
 C         -27.554665      -78.060165      -23.280876
 C         -28.487988      -78.657227      -20.972612
 C         -26.218615      -78.244408      -22.702095
 C         -27.130415      -78.752762      -20.383163
 C         -26.099543      -79.210251      -21.510283
 H         -27.464001      -77.285370      -23.989206
 H         -27.936926      -78.916389      -23.778217
 H         -29.259109      -78.289604      -20.231028
 H         -28.945074      -79.548012      -21.252682
 H         -25.896749      -77.272377      -22.401218
 H         -25.594501      -78.629189      -23.508656
 H         -27.048080      -79.575317      -19.746340
 H         -26.875275      -77.895630      -19.902945
 H         -25.082714      -79.025940      -21.048920
 H         -26.052294      -80.233261      -21.802979
