20
 generated by VMD
 C         -19.841667      -57.475197      -16.889835
 N         -19.214710      -57.947681      -17.728388
 H         -22.685890      -59.647923      -17.120785
 H         -20.394690      -57.173878      -16.063894
 C         -22.681686      -60.476028      -16.490383
 C         -23.964014      -61.214245      -16.277929
 C         -21.361612      -60.892361      -15.794745
 C         -23.646351      -62.681782      -16.068521
 C         -21.460119      -62.223885      -15.105584
 C         -22.849091      -62.793602      -14.784457
 H         -24.523010      -61.173813      -17.219635
 H         -24.484039      -60.829121      -15.404262
 H         -20.736910      -61.089661      -16.704584
 H         -20.924658      -60.039852      -15.273399
 H         -23.008335      -63.016853      -16.925013
 H         -24.625980      -63.262234      -16.026663
 H         -20.750565      -62.186443      -14.233939
 H         -20.938831      -63.025089      -15.606974
 H         -22.800217      -63.900898      -14.413448
 H         -23.361496      -62.233807      -13.989965
