20
 generated by VMD
 C         -49.066002     -126.846542      -38.832375
 N         -49.966843     -127.436638      -38.392174
 H         -46.540810     -124.489616      -38.993397
 H         -48.213982     -126.184647      -39.046585
 C         -45.847984     -124.148643      -39.737762
 C         -44.502132     -124.786995      -39.827343
 C         -45.974037     -122.718399      -40.334866
 C         -43.882534     -124.646339      -41.206688
 C         -45.257771     -122.607056      -41.652630
 C         -43.785027     -123.140991      -41.593529
 H         -44.595215     -125.823357      -39.801540
 H         -43.882381     -124.628471      -38.913715
 H         -47.109577     -122.462227      -40.529373
 H         -45.559052     -122.034454      -39.551529
 H         -44.463612     -125.183762      -42.031796
 H         -42.880871     -125.088753      -41.077309
 H         -45.273838     -121.511734      -41.980305
 H         -45.682011     -123.294418      -42.479580
 H         -43.386265     -123.154213      -42.583733
 H         -43.109264     -122.617287      -40.897480
