20
 generated by VMD
 C         -23.529362      -68.737427      -16.566423
 N         -23.232943      -69.507637      -15.774085
 H         -23.861055      -66.230377      -18.791933
 H         -23.679255      -67.982483      -17.414850
 C         -24.446192      -66.957291      -19.346478
 C         -23.934624      -67.730766      -20.549141
 C         -25.953146      -67.000946      -19.105061
 C         -24.520971      -69.160431      -20.743221
 C         -26.406998      -68.491547      -19.160843
 C         -26.034435      -69.197601      -20.540520
 H         -22.754137      -67.870743      -20.297285
 H         -23.976013      -67.072739      -21.440050
 H         -26.064867      -66.742424      -18.079573
 H         -26.451538      -66.550461      -19.871748
 H         -24.078989      -69.806511      -19.964684
 H         -24.186272      -69.510498      -21.673717
 H         -27.474007      -68.598946      -18.921629
 H         -25.724251      -68.985855      -18.511997
 H         -26.265997      -70.260818      -20.627768
 H         -26.542265      -68.730408      -21.443245
