20
 generated by VMD
 C         -40.514980     -117.184464      -34.509491
 N         -39.493549     -116.703125      -34.785332
 H         -41.779552     -117.071747      -37.539951
 H         -41.567970     -117.460320      -34.329166
 C         -42.623970     -116.368813      -37.782314
 C         -43.022125     -116.275963      -39.181908
 C         -43.642204     -116.081146      -36.740906
 C         -44.358814     -116.931808      -39.470524
 C         -44.869217     -116.945839      -36.932697
 C         -45.371578     -116.701332      -38.375252
 H         -42.310436     -116.646423      -39.913506
 H         -42.952709     -115.204750      -39.412449
 H         -43.233799     -116.429352      -35.777489
 H         -43.888145     -115.067146      -36.735897
 H         -44.087395     -118.046364      -39.552109
 H         -44.811626     -116.686325      -40.452484
 H         -45.745728     -116.678932      -36.312149
 H         -44.691708     -118.002487      -37.038136
 H         -46.197868     -117.305588      -38.400314
 H         -45.710789     -115.663757      -38.405987
