20
 generated by VMD
 C         -78.573425     -210.278305      -76.325943
 N         -77.517693     -210.637146      -76.536331
 H         -79.771927     -212.175705      -74.692406
 H         -79.650078     -209.965927      -76.111008
 C         -79.748405     -212.436172      -73.675079
 C         -78.323738     -212.596054      -73.157692
 C         -80.901245     -213.306763      -73.244453
 C         -78.464905     -212.792007      -71.703125
 C         -80.871437     -213.574417      -71.728821
 C         -79.455627     -213.898422      -71.282799
 H         -77.690262     -211.772644      -73.472328
 H         -77.760910     -213.487854      -73.570854
 H         -81.787560     -212.727417      -73.433502
 H         -80.880081     -214.315933      -73.711594
 H         -78.741486     -211.812546      -71.312920
 H         -77.481522     -213.058945      -71.313805
 H         -81.583405     -214.373383      -71.486961
 H         -81.360184     -212.761276      -71.277214
 H         -79.454140     -213.835373      -70.182648
 H         -79.203979     -214.783295      -71.754440
