20
 generated by VMD
 C         -19.767204      -57.559036      -16.885160
 N         -19.223284      -58.036392      -17.807604
 H         -22.709322      -59.822807      -17.263836
 H         -20.454432      -56.948139      -16.148928
 C         -22.763887      -60.487450      -16.459398
 C         -23.961744      -61.249496      -16.338535
 C         -21.447578      -60.935719      -15.734507
 C         -23.611940      -62.729942      -16.235250
 C         -21.478872      -62.288120      -14.994332
 C         -22.882099      -62.851852      -14.882760
 H         -24.764292      -61.029686      -17.121769
 H         -24.352594      -60.950214      -15.364431
 H         -20.589270      -60.752838      -16.419004
 H         -21.384581      -60.155376      -14.961917
 H         -22.986240      -63.103046      -17.111317
 H         -24.587402      -63.275055      -16.114334
 H         -20.947491      -62.191872      -14.006358
 H         -20.849583      -63.104282      -15.365733
 H         -22.773094      -63.972961      -14.633814
 H         -23.513252      -62.470097      -14.048887
