20
 generated by VMD
 C         -78.331612     -209.800400      -77.150429
 N         -78.895683     -208.824097      -77.341980
 H         -78.513992     -211.007477      -73.996422
 H         -77.780373     -210.659378      -77.044853
 C         -78.730469     -211.365128      -72.961136
 C         -77.618629     -211.642929      -71.936440
 C         -79.872627     -212.380020      -72.973206
 C         -78.068130     -212.210968      -70.596214
 C         -80.327721     -212.691391      -71.509262
 C         -79.333176     -213.245514      -70.475204
 H         -77.070541     -210.733994      -71.663216
 H         -76.881386     -212.352051      -72.401787
 H         -80.729843     -211.851791      -73.468552
 H         -79.681480     -213.182953      -73.600784
 H         -78.484039     -211.360703      -70.068558
 H         -77.170021     -212.494110      -70.005692
 H         -81.063644     -213.420624      -71.540573
 H         -80.684166     -211.649475      -70.992218
 H         -79.614365     -213.299911      -69.447235
 H         -79.029030     -214.210495      -70.975029
