20
 generated by VMD
 C         -36.676090      -98.277397      -26.164381
 N         -37.475815      -98.360382      -26.981859
 H         -36.509926      -96.045181      -28.760166
 H         -35.772720      -98.160408      -25.512728
 C         -35.629143      -95.956734      -29.382238
 C         -35.534603      -96.827278      -30.749594
 C         -34.431862      -95.166641      -29.076105
 C         -35.107723      -96.009750      -31.943811
 C         -33.977737      -94.323418      -30.236238
 C         -33.896980      -95.204887      -31.543858
 H         -36.394848      -97.554939      -30.866339
 H         -34.689747      -97.532692      -30.589390
 H         -34.717968      -94.520180      -28.233229
 H         -33.583374      -95.781120      -28.775288
 H         -35.878357      -95.256927      -32.291962
 H         -34.911545      -96.714958      -32.726509
 H         -32.957806      -93.826477      -30.137634
 H         -34.652027      -93.490402      -30.449450
 H         -33.785053      -94.566582      -32.366863
 H         -32.887939      -95.991455      -31.499790
