20
 generated by VMD
 C         -78.165405     -203.823181      -69.265709
 N         -79.121292     -204.212524      -69.798271
 H         -75.701889     -202.550186      -67.768333
 H         -77.337379     -203.485641      -68.634415
 C         -75.068947     -201.959381      -68.409683
 C         -75.112709     -200.475784      -68.718765
 C         -73.893585     -202.719589      -68.899750
 C         -74.748024     -200.278046      -70.333191
 C         -72.931847     -201.842270      -69.636673
 C         -73.653114     -201.138657      -70.856689
 H         -74.383224     -200.011841      -68.014252
 H         -76.072784     -200.055328      -68.451630
 H         -73.448921     -203.308197      -68.115433
 H         -74.248276     -203.438385      -69.532616
 H         -74.481644     -199.219727      -70.470192
 H         -75.656387     -200.500504      -70.831970
 H         -72.103706     -202.540710      -69.822792
 H         -72.594818     -200.997238      -68.993050
 H         -72.845970     -200.563477      -71.425949
 H         -74.072731     -202.007538      -71.584793
