20
 generated by VMD
 C         -39.170036     -116.151077      -35.256641
 N         -39.414406     -115.397545      -34.392246
 H         -41.424080     -115.703400      -37.257812
 H         -38.630043     -116.789482      -35.999958
 C         -42.402813     -115.881737      -37.469532
 C         -43.039825     -115.576408      -38.843674
 C         -43.313869     -115.728897      -36.271240
 C         -44.272552     -116.374153      -38.934105
 C         -44.722618     -116.276047      -36.522163
 C         -45.381805     -116.009941      -37.913857
 H         -42.304031     -115.858803      -39.653862
 H         -43.347675     -114.515594      -39.023018
 H         -42.820049     -116.234131      -35.382313
 H         -43.511463     -114.667183      -36.216877
 H         -44.236473     -117.447006      -38.868916
 H         -44.646847     -116.168365      -40.002670
 H         -45.429901     -115.874298      -35.731384
 H         -44.622063     -117.434273      -36.404190
 H         -46.176292     -116.565491      -38.019115
 H         -45.831829     -115.005997      -37.919025
