20
 generated by VMD
 C         -21.607136      -66.523941      -16.723499
 N         -20.875486      -66.910606      -15.893521
 H         -24.219711      -64.400864      -18.211205
 H         -22.218132      -66.146942      -17.672701
 C         -24.578192      -65.341339      -18.547327
 C         -24.201870      -65.869652      -19.913475
 C         -25.849285      -65.971451      -18.073612
 C         -24.377243      -67.324989      -20.094469
 C         -25.752405      -67.481476      -18.052711
 C         -25.640451      -67.970947      -19.448347
 H         -23.080776      -65.587296      -20.115271
 H         -24.727798      -65.305901      -20.683044
 H         -25.862122      -65.678947      -17.074909
 H         -26.749273      -65.770027      -18.598446
 H         -23.515156      -67.888412      -19.664640
 H         -24.385557      -67.567947      -21.219620
 H         -26.594749      -68.024162      -17.591991
 H         -24.825577      -67.713539      -17.466076
 H         -25.766403      -68.993233      -19.652651
 H         -26.448099      -67.380798      -19.938467
