20
 generated by VMD
 C         -22.263565      -52.858349      -12.344350
 N         -23.262121      -52.455887      -12.640402
 H         -20.254213      -53.829887      -14.419065
 H         -21.249676      -53.432713      -12.493131
 C         -19.340155      -53.727333      -13.757329
 C         -18.816998      -52.339874      -13.863332
 C         -18.341587      -54.754967      -13.479405
 C         -17.298731      -52.381626      -14.310820
 C         -17.147467      -54.280777      -12.591791
 C         -16.338882      -53.173771      -13.304525
 H         -18.966711      -51.765350      -12.932398
 H         -19.480257      -51.771561      -14.576690
 H         -18.924086      -55.597965      -13.048580
 H         -17.813730      -55.115543      -14.369397
 H         -16.891216      -51.357338      -14.290669
 H         -17.177437      -52.792233      -15.354287
 H         -16.408638      -55.150974      -12.362928
 H         -17.530716      -53.909168      -11.659482
 H         -15.937151      -52.532181      -12.536573
 H         -15.485492      -53.576832      -13.795435
