20
 generated by VMD
 C         -47.328686     -138.897842      -45.673874
 N         -46.895508     -138.471024      -46.685776
 H         -50.703354     -138.291809      -44.862888
 H         -47.741615     -138.975586      -44.688114
 C         -51.686108     -138.673889      -45.162422
 C         -51.778816     -139.172211      -46.522129
 C         -52.875336     -138.419357      -44.293320
 C         -52.888332     -140.097565      -46.713169
 C         -54.027588     -139.351990      -44.638618
 C         -54.253929     -139.584518      -46.081436
 H         -50.873569     -139.605865      -46.823154
 H         -51.914566     -138.220154      -47.025509
 H         -52.595570     -138.539459      -43.241119
 H         -53.121254     -137.398453      -44.522598
 H         -52.786423     -141.012100      -46.137608
 H         -52.995949     -140.411209      -47.786068
 H         -55.051769     -139.018173      -44.387688
 H         -53.803852     -140.260895      -44.137978
 H         -54.887741     -140.408066      -46.150322
 H         -54.491970     -138.590500      -46.514729
