20
 generated by VMD
 C         -29.945967      -89.611237      -25.703173
 N         -29.228683      -90.473473      -25.840393
 H         -32.026421      -91.320396      -26.919031
 H         -30.746265      -88.867973      -25.456835
 C         -32.888199      -90.774323      -27.275852
 C         -34.280190      -91.268158      -27.227404
 C         -32.668072      -89.610764      -28.202417
 C         -35.386299      -90.193604      -27.126020
 C         -33.607033      -88.536949      -27.746214
 C         -35.027134      -88.931175      -27.933062
 H         -34.451984      -92.055679      -26.468233
 H         -34.329723      -91.850807      -28.175701
 H         -31.585150      -89.363029      -28.295414
 H         -33.028065      -89.798195      -29.240128
 H         -35.431541      -89.791313      -26.036667
 H         -36.427891      -90.505966      -27.382095
 H         -33.419308      -87.567352      -28.209211
 H         -33.387817      -88.351364      -26.640232
 H         -35.845867      -88.181160      -27.732878
 H         -35.303772      -89.289047      -29.020124
