20
 generated by VMD
 C         -18.387625      -48.987370       -7.383069
 N         -19.143278      -49.768948       -7.594237
 H         -16.076395      -47.587730      -10.089397
 H         -16.482250      -48.966156      -10.978238
 C         -16.359911      -47.909981      -11.068604
 C         -15.165313      -47.634403      -11.985791
 C         -17.646290      -47.213051      -11.577602
 C         -15.448933      -47.965374      -13.466340
 C         -17.986059      -47.611233      -13.049005
 C         -16.775021      -47.383926      -13.965560
 H         -14.351877      -48.193966      -11.588597
 H         -14.820468      -46.600548      -12.008647
 H         -18.486055      -47.611496      -10.947000
 H         -17.546160      -46.112785      -11.457730
 H         -15.548488      -49.054607      -13.485654
 H         -14.610760      -47.581909      -14.093613
 H         -18.917677      -47.179039      -13.355733
 H         -18.219652      -48.753567      -12.976785
 H         -16.994146      -47.836288      -14.915041
 H         -16.630224      -46.372917      -14.167112
