20
 generated by VMD
 C         -79.504791     -206.254822      -74.950653
 N         -79.557060     -206.466949      -73.813004
 H         -78.622604     -206.568069      -71.157661
 H         -79.330215     -205.918137      -75.920532
 C         -77.619957     -206.684998      -70.685051
 C         -76.623596     -205.777573      -71.243797
 C         -77.305840     -207.845718      -69.869080
 C         -75.366814     -205.685715      -70.396423
 C         -75.926239     -207.750824      -69.104126
 C         -74.874641     -207.183258      -70.112305
 H         -76.953094     -204.716949      -71.352898
 H         -76.313698     -206.014481      -72.305016
 H         -78.137634     -207.917816      -69.098473
 H         -77.327599     -208.820602      -70.366135
 H         -75.504883     -205.034119      -69.533752
 H         -74.570564     -205.167572      -70.887825
 H         -75.659241     -208.741348      -68.881462
 H         -75.933846     -207.123474      -68.170723
 H         -73.819443     -207.310028      -69.712509
 H         -74.903442     -207.661041      -71.081001
