20
 generated by VMD
 C         -33.718483      -96.112068      -25.273245
 N         -33.295395      -97.163780      -25.545658
 H         -34.658089      -94.209785      -27.497440
 H         -34.004986      -95.099983      -24.778318
 C         -34.771572      -93.712578      -28.443907
 C         -36.025124      -94.101883      -29.188053
 C         -33.526924      -93.488068      -29.143829
 C         -36.173386      -93.272972      -30.498831
 C         -33.820976      -92.582535      -30.378649
 C         -34.890320      -93.301872      -31.374487
 H         -36.876209      -93.783142      -28.624489
 H         -36.050632      -95.175743      -29.242956
 H         -32.953522      -92.960037      -28.418478
 H         -32.982338      -94.338478      -29.499550
 H         -36.507549      -92.229996      -30.313684
 H         -36.835293      -93.747360      -31.151844
 H         -32.846790      -92.324814      -30.785494
 H         -34.351223      -91.651215      -30.116579
 H         -34.880337      -92.644730      -32.360065
 H         -34.690857      -94.297523      -31.666645
