20
 generated by VMD
 C         -63.134998     -172.562195      -55.158539
 N         -62.599014     -173.601196      -55.103661
 H         -61.688091     -171.648636      -58.190304
 H         -63.484428     -171.530182      -55.341328
 C         -62.500267     -170.942566      -58.397537
 C         -62.406540     -169.516663      -58.194668
 C         -63.696308     -171.361771      -59.149303
 C         -63.704277     -168.720779      -58.139126
 C         -64.872559     -170.450836      -59.196133
 C         -64.953178     -169.529968      -58.014965
 H         -61.813164     -168.996033      -58.944965
 H         -61.886154     -169.275436      -57.258724
 H         -63.495438     -171.684082      -60.214359
 H         -63.840271     -172.377518      -58.718838
 H         -63.794903     -168.146362      -59.180908
 H         -63.633430     -167.880234      -57.431610
 H         -65.773422     -170.973038      -59.523033
 H         -64.695908     -169.827042      -60.105137
 H         -65.821587     -168.968231      -58.166008
 H         -65.075699     -170.057724      -57.033649
