20
 generated by VMD
 C         -12.994913      -30.183920       -8.360126
 N         -13.874965      -30.440323       -9.004813
 H         -10.929875      -30.982540       -5.139750
 H         -10.920732      -31.573439       -3.502733
 C         -10.759270      -31.877773       -4.540158
 C          -9.372716      -32.484043       -4.793925
 C         -11.940786      -32.897064       -4.897982
 C          -9.283109      -33.866470       -4.228773
 C         -11.794322      -34.302433       -4.268752
 C         -10.411589      -34.865780       -4.466043
 H          -8.613827      -31.830238       -4.399361
 H          -9.340372      -32.544785       -5.898904
 H         -12.934990      -32.492340       -4.664598
 H         -11.869597      -33.083096       -5.976294
 H          -9.195132      -33.712372       -3.121150
 H          -8.379071      -34.304714       -4.673007
 H         -12.453611      -35.058319       -4.736701
 H         -11.984960      -34.195415       -3.164065
 H         -10.319631      -35.771217       -3.886582
 H         -10.326265      -35.218910       -5.498084
