20
 generated by VMD
 C         -12.325540      -27.528120       -4.617762
 N         -13.132220      -28.173975       -5.032025
 H         -10.823457      -30.567743       -2.858250
 H         -10.969472      -28.877850       -3.562578
 C         -10.262410      -29.675514       -3.347649
 C          -9.646302      -30.309694       -4.581394
 C          -9.178596      -29.024250       -2.412037
 C          -8.638238      -29.467583       -5.315309
 C          -8.360071      -28.062363       -3.248039
 C          -7.645589      -28.783352       -4.340093
 H         -10.541397      -30.588987       -5.219812
 H          -9.260752      -31.304346       -4.401716
 H          -9.640101      -28.539017       -1.575429
 H          -8.484849      -29.744749       -1.906484
 H          -9.147387      -28.720282       -5.956373
 H          -8.034593      -30.042614       -6.027706
 H          -7.564812      -27.588121       -2.587266
 H          -8.910029      -27.179977       -3.594841
 H          -7.049531      -28.085159       -4.885001
 H          -7.075580      -29.656096       -3.902188
