20
 generated by VMD
 C         -11.801054      -41.512318       -6.279190
 N         -10.883423      -42.041477       -6.646447
 H         -14.595197      -41.862919       -8.294876
 H         -15.407017      -40.969082       -9.725329
 C         -15.275960      -41.841190       -9.171604
 C         -16.680321      -42.309307       -8.764736
 C         -14.658685      -42.834568      -10.186869
 C         -17.549109      -42.505116      -10.032193
 C         -15.572991      -43.201080      -11.368346
 C         -17.041162      -43.552814      -10.993488
 H         -17.129219      -41.654068       -8.045749
 H         -16.696203      -43.252316       -8.204812
 H         -13.680349      -42.489555      -10.579357
 H         -14.340983      -43.789803       -9.696614
 H         -17.598354      -41.487263      -10.481726
 H         -18.607979      -42.614906       -9.758765
 H         -15.164783      -44.049610      -11.898390
 H         -15.626943      -42.294502      -12.053859
 H         -17.580444      -43.604893      -11.940473
 H         -17.101963      -44.506119      -10.395731
