20
 generated by VMD
 C         -27.824144      -72.633781      -17.949306
 N         -28.105253      -73.550461      -17.353813
 H         -24.734093      -70.925377      -18.682863
 H         -27.801121      -71.686172      -18.601366
 C         -25.100578      -71.109390      -19.735880
 C         -24.348967      -72.194000      -20.519949
 C         -25.850931      -70.024384      -20.383804
 C         -25.257420      -72.805038      -21.760242
 C         -26.397079      -70.349464      -21.751778
 C         -25.653849      -71.596680      -22.606340
 H         -24.000013      -73.055359      -19.761648
 H         -23.448000      -71.752396      -20.981167
 H         -26.812445      -69.737984      -19.846544
 H         -25.188047      -69.148720      -20.435556
 H         -26.089828      -73.230209      -21.207531
 H         -24.662701      -73.533760      -22.333273
 H         -26.263628      -69.474350      -22.464720
 H         -27.513912      -70.626762      -21.686302
 H         -26.334309      -72.014854      -23.265911
 H         -24.883425      -71.208054      -23.270245
