20
 generated by VMD
 C         -19.913605      -58.889961      -17.288582
 N         -19.279560      -58.866684      -18.251131
 H         -22.620571      -59.587032      -16.339834
 H         -20.179611      -58.826180      -16.279581
 C         -22.714678      -60.696201      -16.150280
 C         -23.507252      -61.539387      -17.171486
 C         -22.668266      -61.292156      -14.817948
 C         -23.284725      -63.069347      -17.068283
 C         -22.389215      -62.807091      -14.702889
 C         -23.120882      -63.692417      -15.649649
 H         -23.236088      -61.225296      -18.160707
 H         -24.506334      -61.333263      -17.173779
 H         -21.940716      -60.600132      -14.249085
 H         -23.539738      -61.022243      -14.170559
 H         -22.320124      -63.253033      -17.578175
 H         -24.158278      -63.554207      -17.588287
 H         -22.632557      -63.177784      -13.660538
 H         -21.292452      -63.095596      -14.633057
 H         -22.670116      -64.696182      -15.760993
 H         -24.217781      -63.767899      -15.328160
