20
 generated by VMD
 C         -68.293053     -193.591888      -65.102310
 N         -68.317062     -194.746719      -65.351562
 H         -70.707245     -192.552170      -67.517189
 H         -68.233009     -192.553329      -64.990158
 C         -71.621269     -192.455917      -66.961548
 C         -71.840950     -191.021805      -66.366447
 C         -72.746010     -193.470642      -66.796577
 C         -73.294853     -190.751297      -66.111519
 C         -73.537613     -193.336426      -65.507675
 C         -74.055977     -191.893646      -65.341995
 H         -71.511322     -190.312958      -67.085426
 H         -71.162361     -190.870178      -65.475479
 H         -73.465584     -193.318130      -67.566795
 H         -72.318947     -194.432098      -66.892090
 H         -73.744156     -190.808411      -67.135086
 H         -73.457764     -189.791519      -65.577545
 H         -72.958611     -193.520020      -64.600685
 H         -74.451912     -194.012833      -65.587616
 H         -75.150665     -191.889038      -65.773392
 H         -74.123192     -191.573792      -64.284836
