20
 generated by VMD
 C         -76.927010     -203.429550      -66.737251
 N         -77.703659     -204.045517      -66.164734
 H         -75.490646     -200.565231      -68.389748
 H         -76.269768     -202.917984      -67.435806
 C         -74.681396     -200.025238      -68.837013
 C         -74.824539     -198.532074      -68.727875
 C         -73.771179     -200.633408      -69.853432
 C         -73.534416     -197.852539      -68.994637
 C         -72.945953     -199.709854      -70.696831
 C         -72.924377     -198.257095      -70.390221
 H         -74.981895     -198.440796      -67.725441
 H         -75.702087     -198.127792      -69.217209
 H         -72.964249     -201.209229      -69.344879
 H         -74.462883     -201.202621      -70.488739
 H         -72.888519     -198.156570      -68.145638
 H         -73.594208     -196.774185      -68.986137
 H         -73.321098     -199.832855      -71.695068
 H         -71.991974     -200.104553      -70.823120
 H         -71.873344     -197.924896      -70.440384
 H         -73.579323     -197.647385      -71.179550
