20
 generated by VMD
 C         -63.301098     -174.492569      -56.598351
 N         -62.353519     -174.942474      -56.104481
 H         -66.427505     -173.033768      -58.297493
 H         -64.103279     -173.945740      -57.087097
 C         -65.608192     -172.374023      -58.613609
 C         -65.615028     -171.009064      -58.184628
 C         -64.666931     -172.828674      -59.587376
 C         -64.231400     -170.383301      -58.093185
 C         -63.324322     -172.194550      -59.496872
 C         -63.493828     -170.666367      -59.400513
 H         -65.910873     -170.900467      -57.049095
 H         -66.296402     -170.400284      -58.679955
 H         -64.552010     -173.909271      -59.511139
 H         -65.034531     -172.836670      -60.622726
 H         -63.787357     -170.798630      -57.264427
 H         -64.365860     -169.366211      -57.934574
 H         -62.702099     -172.520325      -60.337017
 H         -62.863262     -172.592880      -58.602055
 H         -62.477512     -170.253983      -59.477234
 H         -63.990322     -170.299316      -60.254765
