20
 generated by VMD
 C         -50.833683     -129.802292      -46.184662
 N         -50.838551     -130.291260      -45.163624
 H         -47.984047     -131.884262      -44.418221
 H         -50.631210     -129.213135      -47.041039
 C         -47.942127     -131.827362      -43.334274
 C         -48.212963     -133.012100      -42.520145
 C         -47.952312     -130.432617      -42.602371
 C         -47.649879     -132.991104      -41.039593
 C         -47.355186     -130.506516      -41.242325
 C         -47.894100     -131.672302      -40.432621
 H         -47.693977     -133.896042      -42.943619
 H         -49.292519     -133.170410      -42.589748
 H         -47.467274     -129.624573      -43.148617
 H         -49.040882     -130.097031      -42.558147
 H         -46.647877     -133.339752      -41.117107
 H         -48.171322     -133.833252      -40.614452
 H         -47.523754     -129.696930      -40.495472
 H         -46.279240     -130.617065      -41.175381
 H         -47.303864     -131.652802      -39.549099
 H         -48.999191     -131.519501      -40.135433
