20
 generated by VMD
 C         -67.377892     -192.054184      -67.368301
 N         -67.811691     -192.799637      -66.585594
 H         -69.928322     -189.776901      -65.420265
 H         -66.907227     -191.468399      -68.086464
 C         -70.934296     -190.011154      -65.157501
 C         -71.711952     -190.832367      -66.150200
 C         -71.559692     -189.449890      -63.990242
 C         -72.975792     -191.597351      -65.470009
 C         -73.090012     -189.748337      -63.809826
 C         -73.248833     -191.274078      -64.017128
 H         -71.014809     -191.687500      -66.483879
 H         -72.089058     -190.181320      -66.934013
 H         -70.928185     -189.849808      -63.141575
 H         -71.475945     -188.402878      -64.113487
 H         -72.843224     -192.692230      -65.662239
 H         -73.773743     -191.435196      -66.162552
 H         -73.676392     -189.123032      -64.464020
 H         -73.316261     -189.311279      -62.800705
 H         -72.484718     -191.934937      -63.457054
 H         -74.173058     -191.415253      -63.635544
