20
 generated by VMD
 C         -35.456665      -97.263885      -25.893553
 N         -34.458042      -97.859718      -26.084272
 H         -35.689156      -94.531151      -27.702610
 H         -36.440956      -96.839134      -25.766340
 C         -35.274632      -94.312622      -28.702076
 C         -35.942467      -95.152977      -29.707293
 C         -33.914738      -93.678696      -28.961378
 C         -35.779579      -94.581924      -31.135326
 C         -33.760498      -93.374611      -30.474548
 C         -34.321171      -94.361092      -31.475836
 H         -36.985821      -95.146667      -29.495001
 H         -35.604305      -96.201447      -29.768185
 H         -33.663074      -92.831146      -28.344032
 H         -33.342331      -94.527039      -28.673601
 H         -36.394619      -93.703850      -31.291059
 H         -36.170586      -95.381165      -31.865707
 H         -32.687737      -93.137016      -30.661001
 H         -34.363285      -92.472382      -30.791990
 H         -33.980820      -94.064423      -32.589012
 H         -33.781700      -95.251427      -31.344667
