20
 generated by VMD
 C         -79.463646     -205.359161      -71.753235
 N         -79.793831     -206.492615      -71.587807
 H         -77.186378     -204.053329      -71.819984
 H         -79.352043     -204.304703      -71.790283
 C         -76.453651     -204.168716      -71.062103
 C         -75.474922     -203.102249      -70.868057
 C         -76.436653     -205.405609      -70.161545
 C         -74.188156     -203.412064      -69.989059
 C         -75.228027     -205.431686      -69.179077
 C         -73.925346     -204.949265      -69.734253
 H         -75.924004     -202.149246      -70.461281
 H         -75.119972     -202.824188      -71.829247
 H         -77.517426     -205.542664      -69.686409
 H         -76.256920     -206.300537      -70.799156
 H         -74.274055     -202.908813      -68.965462
 H         -73.209213     -203.090179      -70.509926
 H         -75.038643     -206.426666      -68.731171
 H         -75.604706     -204.789215      -68.469452
 H         -72.995331     -205.105865      -69.116692
 H         -73.757553     -205.378555      -70.688461
