20
 generated by VMD
 C         -31.853733      -76.326027      -24.580914
 N         -31.691854      -76.803192      -25.610987
 H         -28.981831      -76.718361      -22.146412
 H         -32.344395      -76.004784      -23.776703
 C         -28.543085      -77.747414      -22.178686
 C         -27.560207      -78.103165      -23.310581
 C         -28.482914      -78.660004      -20.994028
 C         -26.175467      -78.198837      -22.674812
 C         -27.060043      -78.719711      -20.402069
 C         -26.129410      -79.147713      -21.504402
 H         -27.548422      -77.286171      -24.122559
 H         -27.860956      -79.028259      -23.852234
 H         -29.172123      -78.313858      -20.204304
 H         -28.679970      -79.668724      -21.291801
 H         -25.784277      -77.229980      -22.402403
 H         -25.472639      -78.570900      -23.400490
 H         -27.077595      -79.331116      -19.524141
 H         -26.759624      -77.708214      -20.034256
 H         -25.045197      -79.132225      -21.083488
 H         -26.429268      -80.151161      -21.821852
