20
 generated by VMD
 C         -49.702164     -127.285019      -40.032173
 N         -49.203659     -126.777351      -39.113033
 H         -46.881008     -126.807632      -42.206379
 H         -49.867760     -127.811150      -40.948036
 C         -46.369442     -126.124420      -41.513783
 C         -45.242905     -126.544563      -40.499954
 C         -46.741329     -124.650528      -41.352303
 C         -44.044880     -125.594818      -40.484230
 C         -45.627083     -123.712921      -41.421421
 C         -44.506046     -124.149857      -40.525654
 H         -44.976994     -127.620132      -40.668045
 H         -45.630344     -126.426689      -39.451168
 H         -47.524532     -124.376564      -42.055462
 H         -47.231697     -124.439072      -40.482944
 H         -43.404217     -125.777664      -41.342316
 H         -43.432213     -125.747330      -39.614502
 H         -45.795918     -122.691101      -41.027317
 H         -45.248577     -123.403809      -42.374146
 H         -43.578838     -123.481598      -40.530636
 H         -44.965244     -124.014404      -39.545383
