20
 generated by VMD
 C         -61.718571     -172.360535      -54.912647
 N         -60.751583     -172.983231      -55.220936
 H         -62.120590     -170.640396      -58.372787
 H         -62.634174     -171.751541      -54.754440
 C         -62.789932     -170.066162      -57.775753
 C         -62.503010     -168.611374      -57.790768
 C         -64.241570     -170.609756      -57.725380
 C         -63.440422     -167.856873      -58.688347
 C         -65.161781     -169.822205      -58.680836
 C         -64.857368     -168.288589      -58.315178
 H         -61.538799     -168.358673      -58.046852
 H         -62.675961     -168.238998      -56.690277
 H         -64.267921     -171.644363      -58.034725
 H         -64.627838     -170.545029      -56.728382
 H         -63.190777     -168.192551      -59.769749
 H         -63.130348     -166.773148      -58.513336
 H         -66.217545     -170.094849      -58.529324
 H         -64.774139     -169.997604      -59.698700
 H         -65.643890     -167.869354      -58.876015
 H         -65.111694     -168.060730      -57.270985
