20
 generated by VMD
 C         -58.671574     -159.049576      -57.439728
 N         -59.134724     -158.166977      -58.100491
 H         -59.492126     -159.627090      -54.629875
 H         -58.198341     -159.813324      -56.798393
 C         -59.620911     -160.276398      -53.728172
 C         -58.505779     -160.385406      -52.672359
 C         -60.567917     -161.408859      -53.829666
 C         -58.972782     -160.942276      -51.242199
 C         -61.207806     -161.700302      -52.443569
 C         -60.110607     -161.944901      -51.324734
 H         -57.930580     -159.452927      -52.594852
 H         -57.826328     -161.198257      -53.046181
 H         -61.231785     -161.164032      -54.615234
 H         -60.157684     -162.395920      -54.163872
 H         -59.401546     -160.186172      -50.667847
 H         -58.191208     -161.242462      -50.480835
 H         -61.971523     -162.514938      -52.494038
 H         -61.794411     -160.822174      -52.095432
 H         -60.726147     -161.907852      -50.405819
 H         -59.805592     -162.999634      -51.448586
