20
 generated by VMD
 C         -40.894432     -102.217751      -35.012066
 N         -41.584305     -102.077080      -35.909988
 H         -39.908787     -104.436249      -31.944460
 H         -40.213760     -102.397278      -34.179813
 C         -38.748688     -104.666603      -31.850384
 C         -37.861343     -104.127487      -32.849060
 C         -38.292282     -105.886932      -31.054825
 C         -36.539810     -103.712868      -32.076511
 C         -36.914368     -105.623306      -30.369581
 C         -35.875584     -104.909554      -31.289474
 H         -38.135612     -103.171799      -33.310856
 H         -37.686161     -104.900642      -33.607533
 H         -39.082443     -106.033287      -30.256041
 H         -38.362103     -106.697105      -31.778854
 H         -36.722675     -102.920197      -31.369591
 H         -35.843853     -103.401817      -32.834408
 H         -36.346542     -106.457657      -30.046223
 H         -37.088688     -104.981682      -29.413065
 H         -35.069107     -104.586189      -30.740627
 H         -35.568138     -105.741913      -31.971243
