20
 generated by VMD
 C         -40.632332     -100.194344      -30.265152
 N         -41.156357     -100.457115      -29.286781
 H         -37.385662     -100.475609      -30.678020
 H         -40.122097     -100.219780      -31.279348
 C         -36.351166     -100.077660      -30.854158
 C         -36.089390      -99.923668      -32.259254
 C         -35.306820     -100.153648      -29.788380
 C         -35.163769      -98.784119      -32.513927
 C         -34.404324      -98.998970      -30.046242
 C         -34.047318      -98.787971      -31.488640
 H         -37.031628      -99.659691      -32.681671
 H         -35.825356     -100.914673      -32.681889
 H         -35.690678     -100.144577      -28.816383
 H         -34.741909     -101.100510      -29.894474
 H         -35.684620      -97.846817      -32.401974
 H         -34.679863      -98.831268      -33.429234
 H         -33.554245      -98.903015      -29.403820
 H         -34.918671      -98.030464      -29.724932
 H         -33.332127      -97.865135      -31.580664
 H         -33.306114      -99.568893      -31.730505
