20
 generated by VMD
 C         -22.625504      -52.474010      -11.945595
 N         -23.796059      -52.411076      -11.666486
 H         -19.959276      -53.700958      -14.176864
 H         -21.720461      -52.682690      -12.522795
 C         -18.919083      -53.574078      -14.093361
 C         -18.346918      -52.234352      -14.534252
 C         -18.083012      -54.565125      -13.401414
 C         -16.863441      -52.095108      -14.345029
 C         -17.143238      -53.760929      -12.428638
 C         -16.204596      -52.830994      -13.123915
 H         -18.926735      -51.548683      -13.875897
 H         -18.552103      -52.068913      -15.557925
 H         -18.652147      -55.198978      -12.759057
 H         -17.577663      -55.198963      -14.188051
 H         -16.700205      -50.997334      -14.375893
 H         -16.379919      -52.479862      -15.280407
 H         -16.623444      -54.386398      -11.678259
 H         -17.832464      -53.141563      -11.809119
 H         -15.982311      -52.069206      -12.404970
 H         -15.355266      -53.393936      -13.460746
