20
 generated by VMD
 C         -40.772461     -102.304932      -35.093731
 N         -41.598843     -102.174530      -35.877319
 H         -39.839451     -104.616249      -32.120708
 H         -40.249992     -102.415947      -34.115498
 C         -38.839005     -104.746895      -31.934832
 C         -37.867928     -104.109856      -32.740303
 C         -38.358414     -106.000298      -31.167938
 C         -36.488014     -103.777840      -32.097504
 C         -37.041245     -105.644234      -30.374908
 C         -35.933628     -105.026222      -31.323904
 H         -38.320980     -103.255119      -33.214478
 H         -37.885273     -104.788727      -33.582703
 H         -39.129936     -106.285393      -30.437483
 H         -38.238533     -106.875320      -31.858648
 H         -36.501907     -102.866158      -31.519371
 H         -35.780033     -103.533577      -32.867920
 H         -36.767513     -106.562042      -29.873119
 H         -37.278812     -104.837158      -29.561850
 H         -35.096134     -104.782005      -30.791847
 H         -35.582592     -105.730484      -32.126099
