20
 generated by VMD
 C         -70.334282     -182.503220      -63.683304
 N         -69.512360     -182.876663      -64.404121
 H         -68.514656     -180.165802      -62.367023
 H         -71.012299     -182.147781      -62.943531
 C         -67.979424     -180.494095      -61.541210
 C         -67.582596     -181.862106      -61.121315
 C         -67.152130     -179.383469      -60.817337
 C         -66.078644     -182.076477      -61.089149
 C         -65.697136     -179.724792      -60.526146
 C         -65.428360     -181.089890      -60.113201
 H         -68.100990     -182.521469      -61.825382
 H         -68.033585     -181.912888      -60.136333
 H         -67.028793     -178.461349      -61.497208
 H         -67.643944     -179.168365      -59.896347
 H         -65.623657     -182.084930      -62.039825
 H         -65.961075     -183.035477      -60.661304
 H         -65.398834     -179.108810      -59.652275
 H         -65.077255     -179.377213      -61.346699
 H         -64.293884     -181.222549      -60.293056
 H         -65.583961     -181.162430      -59.080685
