20
 generated by VMD
 C         -29.748892      -79.901352      -26.345333
 N         -29.549347      -80.052650      -27.464621
 H         -28.287109      -82.730843      -25.053047
 H         -30.136166      -79.688080      -25.317366
 C         -29.173687      -82.965530      -24.374445
 C         -29.148491      -82.571846      -22.935797
 C         -30.056288      -84.084023      -24.799046
 C         -30.655981      -82.560860      -22.421698
 C         -31.420706      -84.172249      -24.150291
 C         -31.202488      -83.922081      -22.628338
 H         -28.890747      -81.478806      -22.825159
 H         -28.568407      -83.220901      -22.318878
 H         -30.177277      -84.119011      -25.905752
 H         -29.370623      -84.910225      -24.586281
 H         -31.324062      -81.807091      -22.820343
 H         -30.644651      -82.309402      -21.326679
 H         -31.861818      -85.173454      -24.357975
 H         -32.125023      -83.433846      -24.671915
 H         -32.184170      -84.121346      -22.144365
 H         -30.541246      -84.697144      -22.392008
