20
 generated by VMD
 C         -36.694912      -98.184387      -26.955626
 N         -37.818886      -98.326485      -26.744062
 H         -36.330048      -96.237015      -28.912790
 H         -35.603756      -98.009186      -27.017216
 C         -35.451183      -96.411469      -29.459776
 C         -35.488876      -97.062370      -30.748352
 C         -34.457550      -95.404327      -28.984941
 C         -35.110603      -96.158531      -31.930298
 C         -34.158558      -94.478317      -30.175343
 C         -33.919430      -95.280273      -31.530394
 H         -36.507278      -97.527344      -30.884855
 H         -34.850967      -97.943604      -30.701389
 H         -34.861717      -94.660362      -28.318298
 H         -33.613781      -95.844200      -28.477419
 H         -35.993511      -95.513115      -32.101002
 H         -34.801003      -96.643044      -32.801292
 H         -33.203728      -93.930878      -29.936262
 H         -34.850254      -93.615776      -30.301655
 H         -33.695198      -94.595406      -32.219585
 H         -32.990681      -95.875587      -31.281931
