20
 generated by VMD
 C         -70.069878     -181.352386      -62.894131
 N         -71.167023     -181.199341      -63.283600
 H         -67.571495     -181.681717      -61.129364
 H         -68.999390     -181.481461      -62.608940
 C         -66.827438     -180.864548      -60.866135
 C         -65.428490     -181.268234      -60.463776
 C         -67.356949     -179.424286      -60.647236
 C         -64.532143     -180.160995      -60.672855
 C         -66.270142     -178.450363      -60.901485
 C         -64.927994     -178.756577      -60.271313
 H         -65.054092     -182.052185      -61.126305
 H         -65.379562     -181.625305      -59.438435
 H         -68.255722     -179.314209      -61.204193
 H         -67.629959     -179.351105      -59.641983
 H         -64.247131     -180.241425      -61.697712
 H         -63.593662     -180.199463      -60.132088
 H         -66.639061     -177.536087      -60.439545
 H         -66.204384     -178.227631      -61.982731
 H         -64.116531     -178.090775      -60.504723
 H         -65.121071     -178.827789      -59.222839
