20
 generated by VMD
 C         -59.992268     -157.558060      -56.045361
 N         -60.240623     -157.597534      -57.144417
 H         -60.024265     -157.399689      -52.267300
 H         -59.662037     -157.522171      -55.035355
 C         -59.226562     -157.993103      -52.702267
 C         -57.891296     -157.551193      -52.209187
 C         -59.478264     -159.397629      -52.980354
 C         -57.615089     -158.430466      -50.894341
 C         -59.051292     -160.291046      -51.843399
 C         -57.731415     -159.906418      -51.217400
 H         -57.827026     -156.523758      -51.833233
 H         -57.040897     -157.652985      -52.931816
 H         -60.555805     -159.513306      -53.241615
 H         -58.882225     -159.564178      -53.801647
 H         -58.191383     -158.256271      -49.941257
 H         -56.552162     -158.231888      -50.522209
 H         -59.161472     -161.304932      -52.266476
 H         -59.804272     -160.301239      -51.016644
 H         -57.451839     -160.604797      -50.351837
 H         -57.062031     -160.073608      -52.005020
