20
 generated by VMD
 C         -29.419987      -89.469765      -25.958715
 N         -29.547123      -88.644264      -25.173895
 H         -31.681171      -90.882500      -27.479017
 H         -29.489044      -90.281021      -26.609118
 C         -32.387615      -90.066856      -27.396502
 C         -33.418056      -90.195465      -26.281830
 C         -32.950600      -89.271881      -28.642410
 C         -34.256859      -88.962379      -25.929388
 C         -33.898670      -88.152252      -28.233467
 C         -34.926537      -88.628365      -27.253042
 H         -33.025398      -90.549965      -25.374622
 H         -34.007732      -91.046776      -26.518986
 H         -31.998487      -88.950562      -29.102448
 H         -33.532803      -89.929062      -29.322554
 H         -33.568829      -88.224747      -25.486267
 H         -35.022888      -89.285461      -25.229446
 H         -34.473106      -87.751282      -29.015463
 H         -33.403374      -87.284157      -27.838396
 H         -35.531380      -87.782967      -26.950588
 H         -35.606007      -89.405762      -27.497017
