20
 generated by VMD
 C          -1.419869      -13.291142        0.755816
 N          -0.472827      -13.615181        0.258578
 H          -4.200924      -14.003707        2.149222
 H          -5.103737      -13.688527        0.686675
 C          -4.953640      -14.433788        1.458927
 C          -6.293986      -14.584437        2.251696
 C          -4.327086      -15.793291        1.068617
 C          -7.243921      -15.525105        1.600848
 C          -5.365332      -16.681280        0.247003
 C          -6.613203      -16.810932        1.118847
 H          -6.771103      -13.633996        2.302202
 H          -5.970848      -14.967177        3.217457
 H          -3.447657      -15.562172        0.426895
 H          -4.009679      -16.262012        2.027100
 H          -7.612756      -15.044390        0.653897
 H          -8.115301      -15.716210        2.271981
 H          -4.868407      -17.664537        0.000995
 H          -5.569425      -16.112362       -0.668332
 H          -7.423405      -17.338345        0.617352
 H          -6.337295      -17.287195        2.049139
