20
 generated by VMD
 C         -17.937965      -48.496189       -7.099353
 N         -17.534826      -47.824574       -6.313802
 H         -16.438574      -48.492924      -10.459402
 H         -15.829369      -48.725166      -12.144912
 C         -16.299486      -48.049923      -11.443802
 C         -15.367506      -46.887127      -11.348970
 C         -17.729856      -47.819134      -12.062106
 C         -15.386314      -46.156132      -12.740722
 C         -17.572437      -47.276035      -13.474347
 C         -16.791279      -46.033154      -13.293216
 H         -14.323933      -47.232880      -11.223610
 H         -15.709539      -46.148552      -10.608786
 H         -18.222080      -48.805294      -12.148200
 H         -18.418457      -47.183491      -11.440751
 H         -14.790092      -46.781448      -13.419983
 H         -14.862702      -45.207893      -12.730783
 H         -18.583275      -47.206280      -13.898877
 H         -17.030977      -47.870285      -14.131201
 H         -16.687300      -45.605392      -14.271309
 H         -17.339174      -45.244606      -12.767312
