20
 generated by VMD
 C         -12.600404      -28.026468       -5.558792
 N         -13.141764      -28.381382       -6.461460
 H         -12.038719      -31.609934       -4.707797
 H         -11.144053      -30.171516       -5.140493
 C         -11.050258      -31.143864       -4.634831
 C          -9.926258      -31.933182       -5.358274
 C         -10.659858      -30.843222       -3.170620
 C          -8.579786      -31.313358       -5.157825
 C          -9.327451      -30.000113       -3.085235
 C          -8.220798      -30.722031       -3.852920
 H         -10.185718      -32.071911       -6.405169
 H         -10.044232      -32.967068       -4.907191
 H         -11.527058      -30.341373       -2.693973
 H         -10.536229      -31.755106       -2.600009
 H          -8.285026      -30.579576       -5.971564
 H          -7.899568      -32.169876       -5.358494
 H          -9.045918      -29.863583       -2.066508
 H          -9.448541      -28.978207       -3.555725
 H          -7.354969      -29.995607       -3.921113
 H          -7.720585      -31.459845       -3.202812
