20
 generated by VMD
 C         -79.761757     -205.525085      -72.318405
 N         -80.080132     -206.636642      -72.320564
 H         -77.623451     -204.676926      -71.179405
 H         -79.707588     -204.509842      -72.144127
 C         -76.595528     -204.973007      -71.082436
 C         -75.414299     -204.094696      -71.377022
 C         -76.325760     -206.412872      -70.635735
 C         -74.596931     -203.934723      -70.070740
 C         -75.626122     -206.256027      -69.208061
 C         -74.417160     -205.272018      -69.216927
 H         -75.656265     -203.105637      -71.683128
 H         -74.800812     -204.521469      -72.221870
 H         -77.248436     -207.016342      -70.510223
 H         -75.617439     -207.099823      -71.208191
 H         -75.129349     -203.244415      -69.458893
 H         -73.515472     -203.703537      -70.289574
 H         -75.181152     -207.204208      -68.799507
 H         -76.499275     -206.019073      -68.447609
 H         -74.128448     -205.116669      -68.190331
 H         -73.554588     -205.709030      -69.762077
