20
 generated by VMD
 C          -4.775229      -21.043201        2.056536
 N          -5.218691      -20.227474        2.669893
 H          -5.022128      -18.746126       -0.572557
 H          -5.689004      -20.329596       -0.123907
 C          -5.824168      -19.466488       -0.799442
 C          -5.584678      -19.958616       -2.264626
 C          -7.223623      -18.914007       -0.543169
 C          -6.738938      -20.843105       -2.793250
 C          -8.295377      -19.774042       -1.202257
 C          -8.062185      -20.106094       -2.686223
 H          -4.650813      -20.525438       -2.315046
 H          -5.545484      -18.991886       -2.912397
 H          -7.402064      -18.911572        0.487011
 H          -7.279675      -17.962412       -1.067683
 H          -6.669291      -21.841650       -2.288830
 H          -6.640468      -21.014044       -3.887619
 H          -9.268724      -19.291866       -1.115215
 H          -8.420837      -20.767031       -0.687733
 H          -8.957472      -20.710297       -3.011376
 H          -7.950025      -19.176472       -3.287094
