20
 generated by VMD
 C         -61.315712     -154.796234      -53.755764
 N         -61.676479     -154.992355      -52.714035
 H         -57.812447     -155.255875      -52.359032
 H         -60.866222     -154.623489      -54.726868
 C         -57.142670     -154.618439      -51.797176
 C         -57.362446     -154.162979      -50.392292
 C         -55.897247     -154.131119      -52.447395
 C         -56.103703     -154.609283      -49.534500
 C         -54.635204     -154.584869      -51.664330
 C         -54.846050     -154.207657      -50.133091
 H         -58.375854     -154.443283      -49.996078
 H         -57.541119     -153.095322      -50.310505
 H         -55.907829     -154.646469      -53.437332
 H         -55.754814     -153.087708      -52.585587
 H         -56.165150     -155.623062      -49.410091
 H         -56.241249     -154.219330      -48.537766
 H         -53.730579     -153.975113      -51.993271
 H         -54.507496     -155.586014      -51.872723
 H         -54.041847     -154.498093      -49.361145
 H         -54.749863     -153.094528      -50.051708
