20
 generated by VMD
 C         -48.326038     -126.109428      -38.747387
 N         -48.880440     -127.096222      -38.563091
 H         -45.744427     -123.310226      -38.109257
 H         -47.855373     -125.181053      -38.757824
 C         -45.455765     -123.314400      -39.209015
 C         -44.475845     -124.294327      -39.504013
 C         -45.672047     -122.014420      -39.951782
 C         -44.333549     -124.552696      -41.039803
 C         -45.492527     -122.311150      -41.487591
 C         -44.294361     -123.267197      -41.818645
 H         -44.932835     -125.237946      -39.022312
 H         -43.463974     -124.208252      -38.951859
 H         -46.657028     -121.545013      -39.693016
 H         -44.838398     -121.347572      -39.804798
 H         -45.264336     -125.048843      -41.276150
 H         -43.491268     -125.150719      -41.267536
 H         -45.388081     -121.455666      -42.070351
 H         -46.390232     -122.816742      -41.748436
 H         -44.268742     -123.366615      -42.906494
 H         -43.307102     -122.750160      -41.568726
