20
 generated by VMD
 C         -31.633791      -79.091911      -26.428095
 N         -30.938837      -78.193993      -26.660799
 H         -29.027067      -80.450974      -24.784639
 H         -32.240719      -79.927299      -26.428526
 C         -28.810410      -81.407990      -24.194235
 C         -27.617065      -81.357124      -23.373030
 C         -29.883663      -82.416451      -23.963545
 C         -28.153992      -81.196602      -21.879906
 C         -30.434490      -82.302071      -22.549095
 C         -29.137897      -82.291908      -21.604799
 H         -26.939991      -80.497498      -23.594660
 H         -26.942148      -82.242889      -23.452265
 H         -30.635582      -82.403648      -24.700663
 H         -29.358372      -83.380302      -24.145994
 H         -28.544182      -80.215294      -21.679129
 H         -27.303242      -81.353081      -21.086838
 H         -31.064777      -83.094780      -22.107147
 H         -30.999689      -81.418777      -22.522425
 H         -29.556608      -82.078537      -20.641487
 H         -28.619419      -83.195816      -21.528860
