20
 generated by VMD
 C         -28.015985      -82.426399      -26.977493
 N         -27.252394      -83.287704      -26.869232
 H         -31.384432      -84.107819      -26.387796
 H         -28.730490      -81.662827      -27.235226
 C         -31.759308      -84.926811      -25.771919
 C         -31.362535      -84.652397      -24.387428
 C         -32.210804      -86.243576      -26.252350
 C         -32.187340      -85.445068      -23.348217
 C         -33.188541      -86.802742      -25.291494
 C         -32.586548      -86.801331      -23.834831
 H         -31.275602      -83.560081      -24.282675
 H         -30.392714      -85.061897      -24.266199
 H         -32.557671      -86.245415      -27.261816
 H         -31.268467      -86.901573      -26.352974
 H         -33.239365      -84.987869      -23.130995
 H         -31.597248      -85.472488      -22.465210
 H         -33.446491      -87.787308      -25.600622
 H         -34.159847      -86.251556      -25.206549
 H         -33.334175      -87.325829      -23.226202
 H         -31.806536      -87.612640      -23.852093
