20
 generated by VMD
 C         -12.689575      -28.124325       -4.734702
 N         -13.070750      -27.704359       -5.691344
 H         -11.056787      -30.746511       -2.903853
 H         -10.952016      -29.236082       -3.891607
 C         -10.388441      -30.079346       -3.455638
 C          -9.681386      -30.775246       -4.650034
 C          -9.389997      -29.494678       -2.378520
 C          -8.706136      -29.768190       -5.329789
 C          -8.504826      -28.405367       -3.179598
 C          -7.708313      -29.128613       -4.350503
 H         -10.422650      -31.020063       -5.486019
 H          -9.163414      -31.671228       -4.302958
 H          -9.937483      -29.077141       -1.569470
 H          -8.788990      -30.347055       -2.029729
 H          -9.240228      -28.933464       -5.861183
 H          -8.154307      -30.356827       -6.083822
 H          -7.725641      -27.932489       -2.492187
 H          -9.156758      -27.636799       -3.638654
 H          -7.095313      -28.425850       -4.879884
 H          -6.944978      -29.828785       -3.926018
