20
 generated by VMD
 C         -39.637741     -105.580048      -37.028030
 N         -40.478622     -106.279060      -37.379894
 H         -38.925762     -107.799774      -34.863319
 H         -38.866871     -104.812714      -36.906727
 C         -39.286373     -108.633736      -34.279736
 C         -38.411949     -109.035240      -33.226936
 C         -40.669239     -109.120697      -34.382187
 C         -39.033554     -109.167290      -31.848129
 C         -41.378578     -109.374374      -33.077740
 C         -40.379776     -110.020294      -32.072582
 H         -37.691978     -108.103325      -33.092533
 H         -37.794350     -109.972466      -33.528896
 H         -41.267708     -108.358406      -34.769657
 H         -40.804649     -110.051384      -35.022289
 H         -39.331875     -108.232170      -31.440123
 H         -38.224533     -109.557899      -31.305927
 H         -42.228382     -110.037193      -33.292755
 H         -41.787579     -108.447304      -32.692535
 H         -40.877872     -110.043411      -31.007965
 H         -40.128578     -111.061203      -32.381184
