20
 generated by VMD
 C         -12.380234      -31.855019       -8.854213
 N         -12.594985      -30.802389       -8.501903
 H         -10.379809      -34.811871       -7.465161
 H         -11.547229      -33.718323       -6.683097
 C         -11.171535      -34.787113       -6.631544
 C         -10.369787      -35.033791       -5.374688
 C         -12.387454      -35.747036       -6.777755
 C         -11.136917      -35.054962       -4.068882
 C         -13.227267      -35.749199       -5.443691
 C         -12.341365      -35.989067       -4.210677
 H          -9.601254      -34.266525       -5.238914
 H          -9.831360      -35.991394       -5.502906
 H         -13.038960      -35.427643       -7.602330
 H         -12.010559      -36.743706       -7.090551
 H         -11.413174      -34.038685       -3.786073
 H         -10.442702      -35.309971       -3.254859
 H         -14.131006      -36.433475       -5.486368
 H         -13.610555      -34.775864       -5.394715
 H         -12.895062      -35.943367       -3.319120
 H         -11.955699      -37.022667       -4.333975
