20
 generated by VMD
 C         -11.361540      -39.513435       -7.085007
 N         -10.932263      -39.878845       -6.122493
 H         -13.173594      -40.709625       -9.014191
 H         -14.705290      -39.793175       -9.085139
 C         -14.326308      -40.833305       -9.229011
 C         -14.947087      -41.663692       -8.093493
 C         -14.653812      -41.546062      -10.548220
 C         -16.428139      -41.939629       -8.283890
 C         -16.178808      -41.644135      -10.798016
 C         -16.814596      -42.523346       -9.671631
 H         -14.774442      -41.259304       -7.062775
 H         -14.391342      -42.616329       -8.064565
 H         -14.161371      -41.044651      -11.405074
 H         -14.232804      -42.498550      -10.494517
 H         -16.976631      -41.019646       -8.055106
 H         -16.804941      -42.599056       -7.478895
 H         -16.344658      -42.062893      -11.755455
 H         -16.644678      -40.564384      -10.734525
 H         -17.940315      -42.544117       -9.832136
 H         -16.323769      -43.523872       -9.728152
