20
 generated by VMD
 C         -20.508972      -64.501801      -16.993305
 N         -19.614828      -64.265633      -16.302874
 H         -24.161455      -63.265850      -17.526161
 H         -21.534239      -64.460007      -17.512781
 C         -24.470488      -64.298950      -17.882151
 C         -24.723577      -64.606850      -19.302576
 C         -24.750134      -65.351982      -16.874947
 C         -24.690989      -66.128487      -19.630001
 C         -24.657305      -66.743149      -17.319355
 C         -25.460396      -66.953506      -18.590723
 H         -23.935207      -64.087746      -19.775070
 H         -25.747334      -64.271576      -19.656382
 H         -23.899851      -65.169289      -16.107973
 H         -25.826935      -65.131180      -16.446810
 H         -23.604128      -66.471085      -19.681952
 H         -25.101906      -66.263718      -20.702995
 H         -24.914387      -67.454620      -16.524162
 H         -23.564394      -66.931183      -17.561195
 H         -25.589851      -67.999336      -18.904749
 H         -26.580082      -66.568489      -18.458029
