20
 generated by VMD
 C          -3.091316      -17.605991        2.628317
 N          -2.991910      -17.971352        1.575890
 H          -5.333717      -19.318674        1.019822
 H          -5.405730      -20.457497       -0.393958
 C          -5.822171      -19.505692        0.022064
 C          -5.583561      -18.180674       -0.740789
 C          -7.365270      -19.616186        0.265403
 C          -6.336922      -17.973110       -2.042120
 C          -8.111012      -19.454483       -1.099442
 C          -7.854083      -18.075651       -1.787212
 H          -4.520936      -18.172985       -0.964685
 H          -5.804597      -17.279671       -0.144361
 H          -7.625339      -20.599810        0.758909
 H          -7.726237      -18.731220        0.960971
 H          -6.036356      -18.794357       -2.713008
 H          -6.053123      -16.961514       -2.498318
 H          -9.193043      -19.564959       -1.002043
 H          -7.707180      -20.256081       -1.689894
 H          -8.350513      -17.978607       -2.757210
 H          -8.171511      -17.257183       -1.101357
