20
 generated by VMD
 C         -20.539734      -64.228027      -16.522923
 N         -19.803316      -63.456249      -16.997192
 H         -23.564226      -63.280220      -17.268095
 H         -21.310116      -64.705925      -15.902590
 C         -23.923838      -64.240524      -17.732033
 C         -24.559221      -64.323219      -19.127329
 C         -24.261953      -65.317368      -16.698420
 C         -24.735451      -65.782928      -19.472170
 C         -24.752869      -66.667870      -17.163910
 C         -25.447521      -66.666618      -18.471664
 H         -23.809299      -63.910774      -19.906628
 H         -25.593838      -63.970058      -19.210630
 H         -23.360294      -65.414169      -15.904972
 H         -25.060585      -64.872047      -16.055225
 H         -23.793119      -66.340530      -19.627356
 H         -25.427708      -65.873383      -20.313156
 H         -25.426182      -67.185730      -16.439642
 H         -23.861597      -67.317947      -17.242151
 H         -25.715311      -67.689178      -18.875181
 H         -26.450226      -66.175026      -18.335480
