20
 generated by VMD
 C         -21.717239      -52.394676      -11.349076
 N         -21.605017      -52.963272      -10.289550
 H         -19.880550      -50.813465      -14.010611
 H         -22.027716      -52.050446      -12.181685
 C         -18.838749      -51.139492      -13.775414
 C         -18.104740      -52.080452      -14.711929
 C         -18.396936      -50.997288      -12.339013
 C         -16.566475      -51.890289      -14.473421
 C         -16.928263      -51.077259      -12.047471
 C         -16.187990      -52.033371      -12.994908
 H         -18.313570      -51.665588      -15.711628
 H         -18.522390      -53.075764      -14.620141
 H         -18.740816      -50.096729      -11.906043
 H         -18.873068      -51.847630      -11.811172
 H         -16.382002      -50.878265      -14.876858
 H         -15.959355      -52.612232      -15.025568
 H         -16.816425      -51.363007      -10.926709
 H         -16.538467      -50.039520      -12.181881
 H         -15.058741      -52.053596      -12.884340
 H         -16.498823      -53.103859      -12.798988
