20
 generated by VMD
 C         -11.696870      -33.694607       -8.472200
 N         -10.783879      -33.786407       -9.153423
 H         -11.513716      -36.922890       -8.004547
 H         -11.990841      -36.217453       -6.469301
 C         -12.283296      -37.009182       -7.230606
 C         -11.979539      -38.345802       -6.573137
 C         -13.691463      -36.840412       -7.670308
 C         -12.963035      -38.596275       -5.404651
 C         -14.762779      -37.249535       -6.585561
 C         -14.407893      -38.517570       -5.825359
 H         -11.015809      -38.333084       -6.090292
 H         -12.072330      -39.134182       -7.339563
 H         -13.812675      -35.788021       -7.951064
 H         -13.905313      -37.494366       -8.519709
 H         -12.852175      -37.835743       -4.677205
 H         -12.689939      -39.592793       -5.031265
 H         -15.780506      -37.276768       -7.093666
 H         -14.848030      -36.381519       -5.887483
 H         -15.013148      -38.557339       -4.918467
 H         -14.705667      -39.429985       -6.448981
