20
 generated by VMD
 C         -68.145706     -179.260788      -58.343212
 N         -67.225616     -178.764404      -57.833580
 H         -66.034912     -176.485016      -59.022396
 H         -69.028954     -179.632889      -58.832211
 C         -65.428032     -175.741501      -59.473728
 C         -66.020531     -174.755173      -60.402897
 C         -63.894260     -175.987778      -59.635883
 C         -65.283142     -173.414627      -60.294151
 C         -63.202171     -174.630035      -59.678379
 C         -63.844231     -173.604675      -60.636864
 H         -67.081413     -174.516281      -60.237446
 H         -65.867233     -175.242874      -61.425297
 H         -63.560337     -176.701721      -58.854122
 H         -63.857574     -176.534760      -60.665207
 H         -65.222420     -173.036163      -59.323849
 H         -65.710205     -172.609436      -60.821041
 H         -62.195827     -174.891983      -60.026058
 H         -63.097378     -174.124023      -58.752472
 H         -63.434948     -172.583481      -60.636719
 H         -63.816715     -173.826691      -61.751400
