20
 generated by VMD
 C         -61.327301     -155.740356      -54.898918
 N         -60.900215     -155.809204      -53.779739
 H         -59.087017     -155.212921      -51.658905
 H         -61.846912     -155.810913      -55.872272
 C         -58.016953     -155.311996      -51.437569
 C         -57.489300     -154.358551      -50.364628
 C         -56.966915     -155.741028      -52.528442
 C         -56.350445     -155.121582      -49.754444
 C         -55.688194     -156.380066      -51.882107
 C         -55.161243     -155.538803      -50.752403
 H         -58.364704     -154.256409      -49.670433
 H         -57.164852     -153.399521      -50.660358
 H         -57.645805     -156.388931      -53.191135
 H         -56.703976     -154.954437      -53.199306
 H         -56.888470     -156.017502      -49.416393
 H         -55.857243     -154.463486      -48.878067
 H         -54.899734     -156.401627      -52.755974
 H         -55.910259     -157.379242      -51.526379
 H         -54.229485     -155.956375      -50.210476
 H         -54.810219     -154.586044      -51.172562
