20
 generated by VMD
 C          -1.275176      -12.142597        1.456188
 N          -0.925679      -12.558862        0.476653
 H          -3.838506      -13.042076        0.930533
 H          -5.659877      -13.131507        0.631525
 C          -4.786827      -13.640018        1.079768
 C          -4.966783      -13.920835        2.512271
 C          -4.603328      -14.989250        0.274004
 C          -6.065350      -14.924135        2.804175
 C          -5.808755      -15.918196        0.573358
 C          -5.872702      -16.264137        2.036252
 H          -5.353997      -13.021133        2.969742
 H          -4.064462      -14.180363        3.072842
 H          -4.598288      -14.655329       -0.806164
 H          -3.632243      -15.518403        0.469836
 H          -7.009991      -14.497738        2.457236
 H          -6.094319      -15.144071        3.870918
 H          -5.815843      -16.824192        0.014388
 H          -6.744315      -15.406081        0.297394
 H          -6.640244      -17.004143        2.356065
 H          -4.881026      -16.637609        2.410615
