20
 generated by VMD
 C          -1.235523      -12.495855        1.334850
 N          -0.745923      -12.704535        0.318791
 H          -4.192384      -12.881207        1.073256
 H          -5.911287      -13.252844        0.756715
 C          -4.951304      -13.691301        1.157695
 C          -5.263559      -14.029058        2.615718
 C          -4.573534      -14.945934        0.363129
 C          -6.390765      -15.065562        2.661611
 C          -5.523264      -16.062414        0.499483
 C          -5.989754      -16.345804        1.904549
 H          -5.420914      -13.126280        3.193219
 H          -4.306429      -14.390139        3.103971
 H          -4.319765      -14.678714       -0.740777
 H          -3.587739      -15.325505        0.843857
 H          -7.314692      -14.612448        2.291676
 H          -6.648432      -15.263797        3.680542
 H          -5.034722      -16.939436        0.101148
 H          -6.366005      -15.861239       -0.134548
 H          -6.904207      -16.949596        1.659110
 H          -5.306702      -17.069933        2.394399
