20
 generated by VMD
 C         -49.890442     -142.667831      -45.289219
 N         -48.837494     -143.112152      -45.305386
 H         -51.931374     -139.442535      -45.813915
 H         -50.911949     -142.356339      -45.355328
 C         -52.672813     -140.070755      -46.324299
 C         -52.281509     -140.383179      -47.816181
 C         -53.960491     -140.272339      -45.910130
 C         -52.834862     -141.641373      -48.224602
 C         -54.332752     -141.776413      -46.217163
 C         -54.251823     -141.960739      -47.759762
 H         -51.207970     -140.369568      -47.943203
 H         -52.697338     -139.474106      -48.267689
 H         -53.950104     -140.132141      -44.782204
 H         -54.832802     -139.704178      -46.447723
 H         -52.239159     -142.421295      -47.763039
 H         -52.814301     -141.729965      -49.326038
 H         -55.238625     -141.911255      -45.721516
 H         -53.631893     -142.453629      -45.806973
 H         -54.357109     -143.008209      -48.018311
 H         -54.949478     -141.333389      -48.317204
