20
 generated by VMD
 C         -60.273762     -170.636139      -55.187763
 N         -59.211609     -171.076035      -55.283173
 H         -63.252705     -170.762329      -56.752598
 H         -61.227997     -170.173889      -55.094059
 C         -63.478550     -169.676376      -56.946930
 C         -62.322201     -168.800934      -57.609291
 C         -64.623802     -168.869308      -56.357605
 C         -62.971649     -167.874527      -58.718277
 C         -65.158340     -167.965988      -57.514862
 C         -64.215622     -167.138947      -58.280830
 H         -61.516602     -169.484772      -58.066631
 H         -61.806278     -168.071426      -56.890556
 H         -65.272644     -169.554337      -55.939396
 H         -64.249435     -168.271774      -55.533829
 H         -63.280106     -168.626877      -59.506001
 H         -62.186436     -167.222397      -59.226063
 H         -66.026123     -167.352493      -57.208370
 H         -65.608421     -168.639359      -58.234745
 H         -64.688293     -166.769775      -59.238453
 H         -63.967060     -166.268555      -57.639400
