20
 generated by VMD
 C         -32.852856      -96.626808      -25.370621
 N         -32.854916      -96.170738      -24.305372
 H         -34.457520      -93.850388      -27.408285
 H         -32.946369      -97.106285      -26.370008
 C         -34.618587      -93.354179      -28.415619
 C         -35.996635      -93.565788      -29.086395
 C         -33.421700      -93.193153      -29.385750
 C         -36.240967      -92.488060      -30.165762
 C         -33.792934      -92.294662      -30.551649
 C         -35.075134      -92.562767      -31.193871
 H         -36.864285      -93.405418      -28.362555
 H         -36.118275      -94.519257      -29.555187
 H         -32.564827      -92.771286      -28.797417
 H         -33.253578      -94.196136      -29.750065
 H         -36.262348      -91.506508      -29.676439
 H         -37.299847      -92.622406      -30.578653
 H         -32.960983      -92.048302      -31.312548
 H         -33.888416      -91.295479      -30.157446
 H         -35.336567      -92.011391      -31.996902
 H         -35.107857      -93.590485      -31.550522
