20
 generated by VMD
 C         -44.698841     -122.324104      -35.914783
 N         -44.565399     -122.614365      -34.810802
 H         -45.309258     -122.811386      -39.691769
 H         -45.117466     -122.108795      -36.939754
 C         -44.956009     -121.836380      -39.725124
 C         -43.560364     -121.371078      -39.562798
 C         -45.999081     -120.723839      -39.551907
 C         -43.290462     -120.138084      -40.466019
 C         -45.778278     -119.565979      -40.440056
 C         -44.338219     -119.105820      -40.187790
 H         -42.837254     -122.255661      -39.851128
 H         -43.341507     -121.059692      -38.507271
 H         -46.948837     -121.165047      -39.519760
 H         -45.909763     -120.207825      -38.596741
 H         -43.097366     -120.468254      -41.484814
 H         -42.287708     -119.666214      -40.199036
 H         -46.379803     -118.650772      -40.454540
 H         -45.744675     -119.718994      -41.596745
 H         -44.139374     -118.314476      -40.841640
 H         -44.195019     -118.711395      -39.227726
