20
 generated by VMD
 C         -22.200434      -67.350685      -16.312008
 N         -21.092163      -67.036850      -16.138498
 H         -23.929785      -65.410820      -17.832598
 H         -23.287836      -67.592827      -16.421757
 C         -24.349476      -66.129280      -18.498709
 C         -23.938871      -66.501114      -19.901447
 C         -25.823992      -66.369987      -18.266367
 C         -24.448757      -67.846497      -20.267117
 C         -26.426510      -67.629166      -18.723412
 C         -25.919094      -68.150101      -20.047798
 H         -22.890947      -66.562576      -19.748146
 H         -24.163252      -65.642258      -20.688986
 H         -26.091211      -66.247139      -17.200617
 H         -26.370699      -65.517570      -18.631418
 H         -23.815928      -68.529358      -19.588268
 H         -24.126583      -68.118965      -21.300690
 H         -27.551292      -67.641083      -18.849108
 H         -26.156050      -68.316513      -17.880930
 H         -26.195160      -69.187538      -20.235876
 H         -26.302895      -67.552361      -20.839710
