20
 generated by VMD
 C         -13.984648      -28.179968       -3.373579
 N         -14.047714      -27.230774       -3.973485
 H         -10.289341      -28.744190       -2.637506
 H         -10.096932      -27.389509       -3.650259
 C          -9.536074      -28.210653       -3.253637
 C          -9.041506      -29.210737       -4.354584
 C          -8.397389      -27.548178       -2.439012
 C          -7.776677      -28.768755       -5.143477
 C          -7.324784      -27.028650       -3.325317
 C          -6.736922      -28.113644       -4.290628
 H          -9.864330      -29.559217       -4.939768
 H          -8.691872      -30.166727       -3.895630
 H          -8.738852      -26.763706       -1.766328
 H          -7.965887      -28.260509       -1.686885
 H          -8.158767      -28.097702       -5.940270
 H          -7.337753      -29.592836       -5.678036
 H          -6.502940      -26.568247       -2.758402
 H          -7.731389      -26.191891       -3.888929
 H          -5.956874      -27.638588       -4.864640
 H          -6.300931      -28.859350       -3.580726
