20
 generated by VMD
 C         -10.587724      -35.593689       -8.543696
 N         -10.424677      -36.663162       -8.341464
 H         -13.340219      -37.170784       -7.146549
 H         -14.582421      -37.904835       -6.099149
 C         -13.971169      -38.056168       -7.014460
 C         -13.128227      -39.312481       -7.005067
 C         -15.020326      -38.147026       -8.074374
 C         -13.894804      -40.678783       -7.037417
 C         -15.827947      -39.447502       -8.044121
 C         -14.934690      -40.641575       -8.211356
 H         -12.529634      -39.216499       -6.128077
 H         -12.365283      -39.242344       -7.753769
 H         -15.708435      -37.324524       -8.102518
 H         -14.624843      -38.109009       -9.136541
 H         -14.405836      -40.945415       -6.100257
 H         -13.174543      -41.558678       -7.181708
 H         -16.540590      -39.443375       -8.829242
 H         -16.438334      -39.511570       -7.063910
 H         -15.477151      -41.569004       -8.286270
 H         -14.368141      -40.497787       -9.168520
