20
 generated by VMD
 C         -11.535600      -41.922859       -6.115166
 N         -10.919374      -41.393467       -6.903245
 H         -14.703999      -41.292442       -8.334927
 H         -15.529113      -40.496380       -9.901939
 C         -15.289400      -41.461838       -9.261721
 C         -16.620476      -41.972595       -8.711756
 C         -14.560489      -42.430389      -10.184444
 C         -17.501970      -42.459217       -9.818556
 C         -15.560589      -42.910660      -11.213898
 C         -16.770536      -43.572128      -10.570585
 H         -17.106203      -41.122608       -8.152031
 H         -16.488749      -42.724865       -7.870474
 H         -13.745411      -41.869278      -10.583445
 H         -14.035927      -43.242035       -9.616278
 H         -17.813429      -41.723579      -10.525476
 H         -18.431919      -42.849960       -9.412738
 H         -15.071503      -43.712433      -11.875920
 H         -15.892597      -42.103973      -11.785990
 H         -17.378532      -44.003407      -11.362705
 H         -16.446741      -44.319721       -9.853647
