20
 generated by VMD
 C         -23.203060      -53.534012      -14.473294
 N         -24.215532      -53.304859      -15.036640
 H         -20.602449      -55.714233      -14.744231
 H         -22.455168      -53.950058      -13.707534
 C         -19.661013      -55.406040      -14.565886
 C         -19.314272      -54.322319      -13.653014
 C         -18.531376      -56.381863      -15.006354
 C         -18.090307      -54.536644      -12.652184
 C         -17.910065      -56.885529      -13.663422
 C         -17.269739      -55.796635      -12.897673
 H         -20.122934      -54.254711      -12.907147
 H         -19.049803      -53.412003      -14.228388
 H         -18.893276      -57.253475      -15.521897
 H         -17.799879      -55.852627      -15.742787
 H         -18.567644      -54.549366      -11.684692
 H         -17.412844      -53.669472      -12.608476
 H         -17.140116      -57.602783      -13.881953
 H         -18.702177      -57.413731      -13.070779
 H         -16.850731      -56.185329      -11.945293
 H         -16.307489      -55.499668      -13.432108
