20
 generated by VMD
 C         -49.498898     -127.692451      -39.951038
 N         -50.496189     -127.600273      -40.573593
 H         -47.531006     -127.262856      -42.088654
 H         -48.677181     -127.746170      -39.212963
 C         -46.779819     -126.666534      -41.476357
 C         -45.771286     -127.241364      -40.578144
 C         -46.705685     -125.183403      -41.841858
 C         -44.366695     -126.519409      -40.498314
 C         -45.329288     -124.570663      -41.747414
 C         -44.667534     -125.052223      -40.458611
 H         -45.652840     -128.342026      -40.791161
 H         -46.077110     -127.041626      -39.528984
 H         -47.107094     -125.054245      -42.832283
 H         -47.305305     -124.776024      -41.014450
 H         -43.905777     -126.914551      -41.385880
 H         -43.780849     -126.780182      -39.612373
 H         -45.545677     -123.468689      -41.706589
 H         -44.806786     -124.715828      -42.660332
 H         -43.790775     -124.402420      -40.252495
 H         -45.326927     -124.684753      -39.712620
