20
 generated by VMD
 C         -22.112104      -52.997288      -12.584349
 N         -23.120560      -52.462128      -12.789123
 H         -20.279299      -53.804607      -14.000991
 H         -21.277248      -53.265938      -12.076573
 C         -19.329535      -53.767353      -13.587327
 C         -18.794645      -52.315453      -13.751692
 C         -18.402023      -54.953449      -13.488107
 C         -17.397566      -52.352623      -14.273918
 C         -17.243479      -54.392357      -12.689418
 C         -16.550341      -53.233444      -13.354791
 H         -18.858223      -51.734226      -12.849812
 H         -19.466776      -51.738247      -14.378666
 H         -18.977783      -55.718666      -12.974632
 H         -17.983644      -55.248398      -14.444362
 H         -16.914267      -51.378448      -14.332836
 H         -17.379421      -52.758415      -15.278673
 H         -16.490997      -55.096954      -12.454927
 H         -17.638205      -53.997875      -11.719868
 H         -16.028883      -52.627567      -12.586546
 H         -15.729344      -53.562286      -14.043568
