20
 generated by VMD
 C         -68.274681     -179.510818      -58.463718
 N         -67.449654     -179.146667      -57.732853
 H         -66.136169     -176.248810      -59.003986
 H         -68.970558     -180.007828      -59.126160
 C         -65.421539     -175.781357      -59.670330
 C         -66.120934     -174.674866      -60.442276
 C         -63.999363     -176.026703      -59.617043
 C         -65.272324     -173.408401      -60.572834
 C         -63.163189     -174.798233      -59.627983
 C         -63.703648     -173.723129      -60.597103
 H         -67.039619     -174.377823      -59.981075
 H         -66.458572     -175.290375      -61.281158
 H         -63.719612     -176.592606      -58.710346
 H         -63.628021     -176.684036      -60.533852
 H         -65.464966     -172.714920      -59.784828
 H         -65.488533     -172.931046      -61.478077
 H         -62.077808     -175.043243      -59.586327
 H         -63.392418     -174.319519      -58.708958
 H         -63.118271     -172.785843      -60.515778
 H         -63.468441     -174.293457      -61.571316
