20
 generated by VMD
 C         -23.172235      -53.439674      -13.481509
 N         -23.438768      -52.706474      -14.353591
 H         -20.711092      -55.275867      -13.967409
 H         -22.787470      -54.318180      -12.634257
 C         -19.589537      -54.926346      -14.063990
 C         -19.109814      -53.520878      -13.710884
 C         -18.617975      -56.016140      -14.347098
 C         -17.755602      -53.328506      -13.045950
 C         -17.496380      -55.901329      -13.323160
 C         -16.786787      -54.552708      -13.314929
 H         -19.799145      -53.047874      -12.980552
 H         -19.154680      -52.925327      -14.653449
 H         -19.136063      -57.041553      -14.292722
 H         -18.351229      -55.805313      -15.384735
 H         -17.827642      -53.151825      -11.969107
 H         -17.306593      -52.389343      -13.443925
 H         -16.684521      -56.674248      -13.506901
 H         -17.908314      -56.087402      -12.354687
 H         -15.884749      -54.537231      -12.719989
 H         -16.317701      -54.422295      -14.316266
