20
 generated by VMD
 C         -65.461533     -177.569870      -56.555870
 N         -66.106194     -176.831070      -55.960712
 H         -64.175499     -175.085541      -58.805519
 H         -64.869186     -178.192276      -57.171810
 C         -64.289055     -174.156677      -59.203861
 C         -65.479103     -173.306732      -59.004135
 C         -63.668148     -173.799942      -60.503571
 C         -64.864487     -171.804230      -58.753841
 C         -63.152657     -172.372543      -60.530735
 C         -64.280632     -171.301956      -60.099277
 H         -65.940857     -173.733398      -58.027660
 H         -66.196884     -173.265152      -59.784748
 H         -62.828415     -174.453903      -60.658516
 H         -64.237625     -174.119324      -61.377918
 H         -64.174599     -171.898285      -57.944897
 H         -65.720268     -171.285248      -58.335751
 H         -62.903301     -172.152939      -61.536247
 H         -62.260948     -172.231552      -59.825565
 H         -63.769238     -170.390686      -60.123283
 H         -65.064217     -171.378922      -60.893307
