20
 generated by VMD
 C         -79.827286     -205.418350      -71.646622
 N         -79.872162     -206.552689      -71.565735
 H         -76.099861     -204.247894      -72.075424
 H         -79.732750     -204.412476      -71.927223
 C         -76.262520     -203.932892      -71.046631
 C         -75.410187     -202.835068      -70.421227
 C         -76.323532     -205.097931      -70.014503
 C         -73.948929     -203.296036      -70.257317
 C         -75.086250     -205.188599      -69.131767
 C         -73.818390     -204.734299      -69.777931
 H         -75.876907     -202.627838      -69.414558
 H         -75.536285     -201.876419      -70.960098
 H         -77.183510     -205.038712      -69.424805
 H         -76.501427     -205.964813      -70.593094
 H         -73.416298     -202.526871      -69.707458
 H         -73.523933     -203.186661      -71.309631
 H         -74.934769     -206.204941      -68.800171
 H         -75.359497     -204.610397      -68.177689
 H         -72.955551     -204.625809      -69.068413
 H         -73.419159     -205.353638      -70.613495
