20
 generated by VMD
 C         -29.802778      -79.510429      -26.389887
 N         -30.495577      -78.782928      -25.850409
 H         -28.321527      -83.116402      -25.562960
 H         -29.142773      -80.218056      -26.972616
 C         -28.969662      -83.059898      -24.705416
 C         -28.607986      -82.050842      -23.676992
 C         -29.934988      -84.106773      -24.264181
 C         -29.808992      -81.597702      -22.875467
 C         -31.090305      -83.592781      -23.305420
 C         -30.505108      -82.698250      -22.197056
 H         -28.147230      -81.217209      -24.080112
 H         -27.925720      -82.506172      -22.947664
 H         -30.449366      -84.538177      -25.140432
 H         -29.302359      -84.935165      -23.829721
 H         -30.672972      -81.061729      -23.450195
 H         -29.422812      -80.785294      -22.292402
 H         -31.587793      -84.379349      -22.773701
 H         -31.936071      -82.993927      -23.815733
 H         -31.237455      -82.305794      -21.493002
 H         -29.723253      -83.294777      -21.573112
