20
 generated by VMD
 C         -58.186138     -166.798553      -56.040108
 N         -57.974148     -167.457809      -55.155952
 H         -60.853394     -165.748459      -54.846870
 H         -58.507210     -166.083984      -56.786533
 C         -61.585388     -165.753860      -55.670914
 C         -61.884319     -166.823013      -56.628052
 C         -62.497021     -164.562668      -55.550945
 C         -63.383247     -167.310684      -56.460781
 C         -63.985355     -165.082809      -55.531818
 C         -64.323189     -166.092316      -56.660141
 H         -61.273827     -167.809143      -56.626575
 H         -61.754250     -166.609009      -57.699703
 H         -62.257580     -164.073074      -54.655964
 H         -62.310844     -163.841507      -56.429134
 H         -63.460747     -167.695572      -55.388920
 H         -63.577248     -168.115341      -57.244354
 H         -64.671364     -164.195404      -55.455719
 H         -64.126778     -165.676727      -54.414619
 H         -65.370529     -166.497208      -56.640652
 H         -64.324921     -165.591171      -57.630749
