20
 generated by VMD
 C         -18.238022      -50.200935       -8.954391
 N         -19.327253      -50.053364       -9.113357
 H         -16.421274      -47.161606       -9.953944
 H         -17.237238      -48.611153      -10.406995
 C         -16.725658      -47.757786      -10.803395
 C         -15.559983      -48.291595      -11.670444
 C         -17.609238      -46.977730      -11.768153
 C         -16.081575      -49.281116      -12.706126
 C         -17.994543      -47.701187      -13.103505
 C         -16.877993      -48.527431      -13.740984
 H         -14.746424      -48.707008      -11.076056
 H         -15.121203      -47.405540      -12.117259
 H         -18.486326      -46.672840      -11.153701
 H         -17.118830      -45.990807      -12.003721
 H         -16.794847      -50.024303      -12.302364
 H         -15.302231      -49.959305      -13.105746
 H         -18.334749      -46.921410      -13.839426
 H         -18.860451      -48.376438      -12.902110
 H         -17.368067      -49.152744      -14.428670
 H         -16.183338      -47.873878      -14.204141
