20
 generated by VMD
 C          -2.291351       -8.591527        0.246301
 N          -1.738660       -8.964482       -0.615129
 H          -2.789329       -9.968513        2.665170
 H          -1.865555      -11.214551        3.649059
 C          -2.816322      -10.972837        3.160575
 C          -3.116108      -11.931810        2.055737
 C          -3.999974      -11.094569        4.161808
 C          -3.282618      -13.393135        2.443360
 C          -4.190454      -12.457576        4.680854
 C          -4.322844      -13.466841        3.580883
 H          -2.288727      -11.972743        1.326870
 H          -4.053193      -11.655887        1.547996
 H          -3.769681      -10.363989        4.964617
 H          -4.892943      -10.665515        3.607344
 H          -2.349920      -13.815962        2.830951
 H          -3.650529      -14.073446        1.636463
 H          -5.122414      -12.479261        5.279770
 H          -3.446760      -12.840131        5.385892
 H          -4.337457      -14.384871        4.122819
 H          -5.287680      -13.289433        3.111179
