20
 generated by VMD
 C         -10.526186      -35.829094       -9.098330
 N         -10.171798      -34.852463       -8.647550
 H         -13.031657      -36.904102       -6.855963
 H         -14.110304      -37.570801       -5.642116
 C         -13.759533      -37.780792       -6.683209
 C         -13.005204      -39.106083       -6.577631
 C         -14.760155      -37.802715       -7.831103
 C         -13.822923      -40.304379       -6.594150
 C         -15.624872      -39.037895       -7.808726
 C         -14.784573      -40.291882       -7.782479
 H         -12.276017      -39.154408       -5.739066
 H         -12.349395      -39.092819       -7.496023
 H         -15.330442      -36.834579       -7.821835
 H         -14.201313      -37.693138       -8.794616
 H         -14.433950      -40.374195       -5.689081
 H         -13.219640      -41.270203       -6.507165
 H         -16.321024      -39.028835       -8.633438
 H         -16.224470      -39.007492       -6.885676
 H         -15.466751      -41.136761       -7.704108
 H         -14.180890      -40.377354       -8.708652
