20
 generated by VMD
 C         -68.857437     -185.896317      -66.199913
 N         -68.498932     -186.158417      -67.277740
 H         -69.572380     -183.037796      -63.496361
 H         -69.265030     -185.654526      -65.191994
 C         -69.357620     -183.745529      -62.767948
 C         -70.342422     -184.876022      -62.682716
 C         -68.006294     -183.888550      -62.146591
 C         -70.184181     -185.794617      -61.487099
 C         -67.625931     -185.221115      -61.371868
 C         -68.773582     -186.350098      -61.525970
 H         -70.401360     -185.327667      -63.634087
 H         -71.296516     -184.362732      -62.539597
 H         -67.297882     -183.740402      -62.933880
 H         -67.670052     -183.064255      -61.467091
 H         -70.817978     -186.651657      -61.577885
 H         -70.421829     -185.165024      -60.604237
 H         -67.437340     -184.869568      -60.318386
 H         -66.722679     -185.725327      -61.667465
 H         -68.690247     -186.890961      -62.482800
 H         -68.697845     -187.062347      -60.631157
