20
 generated by VMD
 C         -40.825306     -119.294258      -34.985580
 N         -39.774189     -118.819008      -35.274902
 H         -43.624062     -117.097549      -36.183311
 H         -41.662128     -119.965721      -34.826492
 C         -44.001045     -117.182770      -37.181034
 C         -43.031464     -117.609344      -38.203545
 C         -45.349327     -116.569771      -37.622467
 C         -43.742817     -118.386452      -39.369331
 C         -45.927979     -117.384308      -38.780682
 C         -44.987766     -117.663170      -39.945343
 H         -42.290344     -118.280052      -37.762749
 H         -42.443626     -116.841133      -38.703430
 H         -46.016815     -116.630791      -36.761253
 H         -45.263554     -115.512939      -37.783321
 H         -44.165234     -119.324905      -39.229263
 H         -43.015579     -118.628563      -40.141613
 H         -46.868546     -116.923271      -38.983227
 H         -46.277870     -118.303787      -38.483017
 H         -45.498230     -118.222107      -40.710987
 H         -44.683121     -116.809677      -40.568363
