20
 generated by VMD
 C         -19.904219      -50.096615       -9.441692
 N         -19.671310      -51.189041       -9.644936
 H         -16.592669      -48.003841      -10.018026
 H         -19.946100      -48.967339       -8.800585
 C         -16.551443      -48.202942      -11.063758
 C         -15.576832      -49.109833      -11.705083
 C         -17.446310      -47.400288      -11.926855
 C         -16.310740      -49.933456      -12.781245
 C         -17.801706      -48.086636      -13.250960
 C         -16.792267      -49.058506      -13.926611
 H         -15.121903      -49.739559      -10.981387
 H         -14.755994      -48.555611      -12.237985
 H         -18.418894      -47.311810      -11.365446
 H         -17.099413      -46.351700      -12.030838
 H         -17.149879      -50.396179      -12.300725
 H         -15.653805      -50.699017      -13.165599
 H         -18.040230      -47.397930      -13.987848
 H         -18.737095      -48.634178      -12.995997
 H         -17.310659      -49.699123      -14.679373
 H         -15.908707      -48.595070      -14.436086
