20
 generated by VMD
 C         -51.607246     -145.909271      -43.915321
 N         -51.474350     -146.429214      -44.931351
 H         -53.949745     -145.434479      -46.936211
 H         -51.699883     -145.509842      -42.935448
 C         -53.857048     -144.676056      -47.698154
 C         -52.813210     -144.547440      -48.710808
 C         -54.850998     -143.439926      -47.424515
 C         -53.424412     -143.977798      -50.106857
 C         -55.365700     -143.044281      -48.741264
 C         -54.379478     -142.744186      -49.820946
 H         -52.449360     -145.498138      -49.030930
 H         -51.921143     -143.908722      -48.311504
 H         -55.641800     -143.750031      -46.731396
 H         -54.254814     -142.713196      -46.913601
 H         -53.997200     -144.752533      -50.552288
 H         -52.639832     -143.628113      -50.752972
 H         -56.014755     -142.220566      -48.775410
 H         -55.978405     -143.893631      -49.039684
 H         -54.845432     -142.370163      -50.783230
 H         -53.732685     -141.904572      -49.495518
