20
 generated by VMD
 C         -58.975716     -168.406693      -55.023308
 N         -57.856045     -168.806137      -54.916683
 H         -62.251991     -168.947052      -55.776638
 H         -59.993534     -168.097702      -55.288044
 C         -62.493950     -167.995743      -56.335674
 C         -62.669151     -168.083649      -57.767029
 C         -62.809433     -166.669907      -55.621845
 C         -64.094917     -167.624405      -58.212391
 C         -64.227478     -166.205719      -56.004807
 C         -64.486771     -166.221359      -57.528214
 H         -62.590729     -169.040955      -58.028412
 H         -61.888927     -167.549850      -58.407021
 H         -62.834232     -167.008484      -54.474594
 H         -62.017532     -165.904999      -55.829395
 H         -64.857079     -168.314758      -57.908833
 H         -64.319366     -167.582382      -59.268887
 H         -64.394455     -165.237762      -55.611942
 H         -64.874336     -166.710938      -55.388973
 H         -65.532715     -165.944595      -57.891060
 H         -63.823650     -165.415970      -58.023033
