20
 generated by VMD
 C         -44.563160     -122.316925      -36.021526
 N         -43.997475     -121.332565      -35.702133
 H         -45.021626     -122.676979      -39.867809
 H         -45.117592     -123.130379      -36.382683
 C         -44.897301     -121.622597      -39.616997
 C         -43.497822     -121.229927      -39.373291
 C         -46.008038     -120.727379      -39.284279
 C         -43.234921     -119.900040      -40.116714
 C         -45.759338     -119.349800      -39.938446
 C         -44.328167     -118.823700      -39.811714
 H         -42.854691     -122.068657      -39.871967
 H         -43.142254     -121.109917      -38.352055
 H         -46.960648     -121.275826      -39.520077
 H         -46.099422     -120.596642      -38.224655
 H         -42.931725     -120.138275      -41.188419
 H         -42.224831     -119.531090      -39.798405
 H         -46.439442     -118.640434      -39.494305
 H         -46.306492     -119.403069      -40.901978
 H         -44.261627     -117.997658      -40.441628
 H         -44.088852     -118.444473      -38.863098
