20
 generated by VMD
 C         -68.988838     -193.991287      -64.509064
 N         -68.419815     -194.080688      -65.501175
 H         -71.084541     -193.986084      -67.548248
 H         -69.358414     -193.990112      -63.443321
 C         -71.928375     -193.331619      -67.288712
 C         -71.571808     -192.105392      -66.543816
 C         -73.325729     -193.930939      -67.288994
 C         -72.625259     -191.410629      -65.712616
 C         -74.312805     -193.017487      -66.626419
 C         -73.762955     -192.416855      -65.305687
 H         -71.089310     -191.271744      -67.012535
 H         -70.787041     -192.328369      -65.768188
 H         -73.526581     -194.047073      -68.344162
 H         -73.356461     -195.039398      -67.042465
 H         -73.135521     -190.634659      -66.393280
 H         -72.293472     -190.750717      -64.870766
 H         -75.244713     -193.581284      -66.330505
 H         -74.667488     -192.238205      -67.292618
 H         -74.531822     -191.970947      -64.694160
 H         -73.256775     -193.212097      -64.590569
