20
 generated by VMD
 C         -69.278725     -194.663834      -65.142113
 N         -68.444862     -193.894470      -65.009308
 H         -71.014511     -194.220764      -67.578972
 H         -69.995834     -195.430161      -65.070984
 C         -71.934799     -193.761765      -67.239128
 C         -71.612656     -192.399979      -66.582489
 C         -73.327744     -194.237564      -67.190742
 C         -72.559975     -192.088882      -65.431259
 C         -74.374878     -193.079025      -67.010063
 C         -74.102982     -192.109146      -65.855301
 H         -71.814285     -191.667114      -67.309265
 H         -70.628838     -192.276566      -66.258690
 H         -73.561966     -194.688461      -68.159569
 H         -73.357628     -194.895279      -66.414040
 H         -72.368134     -191.212341      -64.847069
 H         -72.465889     -192.895462      -64.698181
 H         -75.366455     -193.494461      -66.992340
 H         -74.342567     -192.437698      -67.903168
 H         -74.412445     -191.022385      -66.001251
 H         -74.639580     -192.501190      -64.951630
