20
 generated by VMD
 C         -79.485115     -205.433151      -70.923752
 N         -80.611687     -205.658615      -71.136345
 H         -77.121063     -203.032272      -69.746956
 H         -78.392281     -205.198181      -70.810699
 C         -76.051315     -203.189072      -69.785416
 C         -75.348183     -201.920807      -70.298378
 C         -75.371887     -204.442719      -69.514038
 C         -73.829468     -202.041458      -70.481247
 C         -74.051888     -204.116898      -68.977219
 C         -73.248131     -203.438232      -70.071991
 H         -75.575928     -201.100296      -69.548401
 H         -75.918671     -201.672760      -71.161720
 H         -75.944443     -205.202164      -69.007324
 H         -75.329536     -205.007446      -70.480690
 H         -73.344383     -201.391769      -69.739029
 H         -73.459427     -201.762863      -71.428711
 H         -73.450272     -204.955078      -68.669807
 H         -74.184700     -203.470001      -68.057732
 H         -72.229462     -203.231140      -69.876312
 H         -73.178108     -204.112427      -70.930420
