20
 generated by VMD
 C         -38.537098     -108.698158      -36.727585
 N         -37.361572     -108.792465      -36.752537
 H         -42.050060     -109.890717      -36.401524
 H         -39.647957     -108.608047      -36.571751
 C         -41.901882     -110.417473      -35.528828
 C         -41.246243     -111.765205      -35.800713
 C         -42.681744     -110.117714      -34.255360
 C         -40.687172     -112.212357      -34.486969
 C         -41.931347     -110.738960      -33.110676
 C         -41.485054     -112.145714      -33.269382
 H         -40.536617     -111.755463      -36.685715
 H         -42.029144     -112.457611      -36.197262
 H         -42.648281     -109.014458      -34.042641
 H         -43.720901     -110.514420      -34.283558
 H         -39.711670     -111.743980      -34.495605
 H         -40.385696     -113.252350      -34.479267
 H         -42.607426     -110.685219      -32.187424
 H         -40.951679     -110.211395      -32.859230
 H         -40.883816     -112.302620      -32.449638
 H         -42.410332     -112.748436      -33.332233
