20
 generated by VMD
 C         -49.063873     -126.847717      -38.833618
 N         -49.966125     -127.427048      -38.393700
 H         -46.691463     -124.546944      -39.041229
 H         -48.221645     -126.188255      -39.045502
 C         -45.858234     -124.186729      -39.748825
 C         -44.509087     -124.784546      -39.830742
 C         -45.988010     -122.728264      -40.339127
 C         -43.871151     -124.638115      -41.219723
 C         -45.236752     -122.623619      -41.658844
 C         -43.799633     -123.141808      -41.583675
 H         -44.634289     -125.827805      -39.768970
 H         -43.963753     -124.551544      -38.899551
 H         -47.084000     -122.484802      -40.483315
 H         -45.463467     -122.118851      -39.536140
 H         -44.495312     -125.165451      -41.946030
 H         -42.879658     -125.060951      -41.128693
 H         -45.198376     -121.497307      -41.954838
 H         -45.621407     -123.350609      -42.421173
 H         -43.364479     -123.067024      -42.660866
 H         -43.164143     -122.634834      -40.838001
