20
 generated by VMD
 C         -51.089600     -130.786057      -46.390236
 N         -50.266663     -130.630508      -47.229389
 H         -48.307808     -132.110916      -44.413555
 H         -51.364452     -131.026352      -45.338306
 C         -48.273968     -132.356796      -43.386589
 C         -48.797829     -133.730774      -43.095341
 C         -48.273445     -131.281616      -42.220852
 C         -48.405842     -134.255234      -41.682964
 C         -47.806431     -131.904999      -40.892010
 C         -48.624069     -133.216202      -40.632137
 H         -48.356361     -134.507278      -43.820366
 H         -49.857010     -133.700424      -43.123550
 H         -47.637222     -130.477890      -42.654781
 H         -49.319355     -130.973129      -42.158100
 H         -47.383911     -134.612366      -41.603535
 H         -49.049599     -135.020035      -41.271374
 H         -47.983318     -131.191727      -40.133377
 H         -46.739498     -132.024216      -40.737904
 H         -48.176693     -133.610260      -39.754620
 H         -49.661407     -132.857407      -40.522282
