20
 generated by VMD
 C         -79.834587     -205.504425      -72.300316
 N         -80.060516     -206.662186      -72.297508
 H         -77.555588     -204.579224      -71.163078
 H         -79.709129     -204.440552      -72.077492
 C         -76.547600     -204.934891      -71.107689
 C         -75.363213     -204.073578      -71.326416
 C         -76.284470     -206.388809      -70.544128
 C         -74.643257     -203.906113      -70.098618
 C         -75.631592     -206.263596      -69.248901
 C         -74.440117     -205.284470      -69.242279
 H         -75.561081     -203.080093      -71.828667
 H         -74.673523     -204.642776      -71.983871
 H         -77.206818     -206.949112      -70.666191
 H         -75.610924     -206.830368      -71.257263
 H         -75.033775     -203.138702      -69.403000
 H         -73.600258     -203.587509      -70.272942
 H         -75.167557     -207.170822      -68.978653
 H         -76.396996     -205.943695      -68.519661
 H         -74.094215     -204.989761      -68.254059
 H         -73.610542     -205.900192      -69.671600
