20
 generated by VMD
 C         -47.925350     -134.433395      -47.187157
 N         -48.022850     -133.880737      -48.170364
 H         -49.821140     -134.362106      -44.500347
 H         -48.129242     -135.140472      -46.433037
 C         -50.279724     -135.220016      -44.035336
 C         -50.633755     -136.346756      -44.904789
 C         -51.167641     -134.991821      -42.777794
 C         -50.787357     -137.628784      -44.112289
 C         -51.337460     -136.331726      -42.018936
 C         -51.792896     -137.507996      -42.858727
 H         -49.847118     -136.559357      -45.654770
 H         -51.611309     -136.218170      -45.438980
 H         -50.842472     -134.078934      -42.124958
 H         -52.149460     -134.727219      -43.172714
 H         -49.789249     -137.909760      -43.837765
 H         -51.245773     -138.494186      -44.616859
 H         -51.843319     -136.134842      -41.121384
 H         -50.331253     -136.620209      -41.676258
 H         -51.844810     -138.418686      -42.310463
 H         -52.786999     -137.441849      -43.102894
