20
 generated by VMD
 C         -13.719088      -28.731386       -6.888608
 N         -13.222054      -28.864399       -7.881700
 H         -11.994075      -30.824284       -4.997224
 H         -10.548389      -29.799089       -4.515258
 C         -10.949643      -30.840872       -4.574970
 C         -10.020799      -31.561249       -5.571068
 C         -10.918954      -31.494705       -3.192275
 C          -8.660186      -31.814793       -5.023127
 C          -9.516579      -32.027935       -2.643493
 C          -8.754095      -32.702747       -3.789046
 H          -9.795640      -30.881424       -6.496731
 H         -10.486643      -32.445530       -5.989467
 H         -11.321978      -30.720201       -2.494136
 H         -11.625439      -32.357338       -3.167387
 H          -8.020850      -30.953318       -4.696098
 H          -8.081211      -32.390289       -5.801513
 H          -9.700295      -32.766712       -1.909543
 H          -8.980152      -31.192026       -2.091408
 H          -7.709908      -32.840202       -3.522479
 H          -9.222808      -33.685612       -4.075239
