20
 generated by VMD
 C         -13.116996      -28.131702       -3.871549
 N         -13.938291      -27.501541       -4.280363
 H         -10.497057      -28.924091       -2.504034
 H         -10.213906      -27.636166       -3.783864
 C          -9.794369      -28.515638       -3.257933
 C          -9.304836      -29.481201       -4.321499
 C          -8.589154      -28.038898       -2.394760
 C          -8.159431      -28.870310       -5.185781
 C          -7.549181      -27.396719       -3.259457
 C          -7.026294      -28.308002       -4.364270
 H         -10.073975      -29.781651       -5.077040
 H          -8.924667      -30.362167       -3.832731
 H          -8.924962      -27.273947       -1.682095
 H          -8.201885      -28.977942       -1.926978
 H          -8.633946      -28.153521       -5.875880
 H          -7.808800      -29.663282       -5.848752
 H          -6.692554      -27.131756       -2.571777
 H          -7.906904      -26.486795       -3.718966
 H          -6.317981      -27.704996       -4.899551
 H          -6.367457      -29.052948       -3.884222
