20
 generated by VMD
 C         -48.482841     -135.666718      -46.309746
 N         -47.355717     -135.650864      -45.904922
 H         -52.030270     -134.914200      -45.651081
 H         -49.326286     -135.749207      -47.011189
 C         -51.686165     -135.771667      -45.163811
 C         -52.372589     -137.030960      -45.426052
 C         -51.254471     -135.558044      -43.672520
 C         -51.524433     -138.201324      -45.070953
 C         -50.479881     -136.757034      -43.203220
 C         -51.182365     -138.043671      -43.582645
 H         -52.444183     -137.054398      -46.483353
 H         -53.424774     -137.082092      -45.008377
 H         -50.904770     -134.549149      -43.600368
 H         -52.180332     -135.633926      -43.208782
 H         -50.541985     -138.149887      -45.556347
 H         -52.032959     -139.171844      -45.243553
 H         -50.235020     -136.705322      -42.141293
 H         -49.506538     -136.806885      -43.778374
 H         -50.645012     -138.850464      -43.162380
 H         -52.221626     -138.176773      -42.997501
