20
 generated by VMD
 C         -40.726318     -100.061058      -29.820383
 N         -40.429375     -100.268303      -28.693954
 H         -37.400185      -99.628403      -30.505781
 H         -40.931885     -100.080887      -30.834118
 C         -36.391129      -99.391129      -30.834274
 C         -35.871147      -99.527092      -32.199806
 C         -35.349880      -99.455399      -29.663872
 C         -34.887280      -98.379501      -32.490513
 C         -34.367626      -98.477676      -30.021080
 C         -33.821590      -98.408974      -31.451672
 H         -36.639893      -99.413605      -33.019547
 H         -35.484150     -100.512352      -32.355320
 H         -35.782288      -99.337128      -28.635756
 H         -34.876095     -100.390022      -29.629356
 H         -35.429092      -97.456375      -32.723804
 H         -34.428974      -98.615044      -33.506641
 H         -33.463745      -98.508675      -29.376001
 H         -34.825584      -97.576881      -29.790035
 H         -33.446522      -97.432701      -31.506577
 H         -33.004105      -99.103561      -31.846344
