20
 generated by VMD
 C         -78.608009     -209.464203      -76.950211
 N         -77.762238     -209.930435      -77.604759
 H         -79.595673     -211.126205      -73.654152
 H         -79.450035     -209.088684      -76.319450
 C         -79.392281     -212.101074      -73.287132
 C         -78.176422     -212.370331      -72.568695
 C         -80.515686     -213.047775      -72.976982
 C         -78.320000     -212.677155      -71.049553
 C         -80.657539     -213.389618      -71.473778
 C         -79.344681     -213.718536      -70.793915
 H         -77.383011     -211.562988      -72.685715
 H         -77.829254     -213.351303      -72.997391
 H         -81.471115     -212.672577      -73.284943
 H         -80.501305     -214.000366      -73.645760
 H         -78.567513     -211.678741      -70.626343
 H         -77.411682     -213.009506      -70.617966
 H         -81.283638     -214.240097      -71.472878
 H         -81.175705     -212.643219      -71.001190
 H         -79.647942     -213.809509      -69.725136
 H         -78.992210     -214.701248      -71.059898
