20
 generated by VMD
 C         -73.956764     -201.105576      -65.367958
 N         -72.797409     -201.108093      -65.438759
 H         -74.164200     -198.104980      -66.670692
 H         -74.968864     -201.346710      -65.455894
 C         -74.271667     -197.547211      -67.608543
 C         -74.583984     -196.080246      -67.714417
 C         -73.566315     -198.271957      -68.667496
 C         -73.473991     -195.359634      -68.449104
 C         -73.819221     -197.495926      -70.004456
 C         -73.284035     -195.986267      -69.800346
 H         -74.680771     -195.776443      -66.735359
 H         -75.640373     -196.016022      -68.228737
 H         -72.550819     -198.591476      -68.537788
 H         -74.065765     -199.223099      -68.658089
 H         -72.569496     -195.391876      -67.848793
 H         -73.721733     -194.273788      -68.449966
 H         -74.915497     -197.395782      -70.341179
 H         -73.183868     -197.953995      -70.809212
 H         -72.185837     -195.878555      -70.119255
 H         -73.684105     -195.431030      -70.559891
