20
 generated by VMD
 C         -67.622993     -191.790741      -67.281914
 N         -67.043571     -192.609329      -66.668221
 H         -70.407570     -189.307083      -66.035103
 H         -67.911430     -190.901047      -67.866539
 C         -71.166649     -189.802582      -65.465637
 C         -71.724388     -191.117355      -65.865242
 C         -71.448090     -189.281799      -64.088150
 C         -73.118187     -191.242249      -65.397278
 C         -72.830414     -189.591995      -63.548183
 C         -73.255913     -191.041611      -63.811523
 H         -71.099136     -191.982697      -65.505905
 H         -71.585449     -191.289886      -66.900948
 H         -70.608742     -189.485535      -63.417770
 H         -71.384941     -188.239990      -64.096519
 H         -73.581497     -192.239700      -65.734535
 H         -73.624115     -190.354080      -65.830200
 H         -73.595253     -188.926224      -64.047531
 H         -72.834572     -189.486755      -62.397961
 H         -72.576233     -191.908768      -63.387871
 H         -74.189072     -191.197037      -63.328293
