20
 generated by VMD
 C         -60.038387     -156.639923      -55.738495
 N         -60.916565     -156.078278      -56.160275
 H         -59.760422     -157.687805      -52.914494
 H         -59.218151     -157.092041      -55.183529
 C         -58.745846     -157.948471      -52.907360
 C         -57.621082     -157.017975      -52.601635
 C         -58.526054     -159.325638      -52.424679
 C         -57.380074     -156.928284      -51.106869
 C         -58.270412     -159.356537      -50.881931
 C         -57.100700     -158.392365      -50.563541
 H         -57.879654     -156.008835      -52.974415
 H         -56.841114     -157.540771      -53.302895
 H         -59.365932     -159.994843      -52.520908
 H         -57.665493     -159.751648      -53.044559
 H         -58.286320     -156.526016      -50.577530
 H         -56.668716     -156.233276      -50.748318
 H         -57.874645     -160.376389      -50.612392
 H         -59.264774     -159.242386      -50.233650
 H         -56.862976     -158.387543      -49.412663
 H         -56.106335     -158.706696      -50.877026
