20
 generated by VMD
 C         -13.059331      -43.351254       -6.799926
 N         -12.847435      -42.270432       -6.988384
 H         -14.474465      -43.886715       -8.431016
 H         -14.537752      -42.558838       -9.562366
 C         -15.083503      -43.543198       -9.304012
 C         -16.555103      -43.238247       -9.020939
 C         -14.931714      -44.520096      -10.434209
 C         -17.125551      -42.577160      -10.263237
 C         -15.569961      -43.877502      -11.725728
 C         -17.018797      -43.388592      -11.486311
 H         -16.640978      -42.535206       -8.238253
 H         -17.097620      -44.156918       -8.820021
 H         -13.873253      -44.679184      -10.578587
 H         -15.396461      -45.509609      -10.244069
 H         -16.599026      -41.640011      -10.445628
 H         -18.144808      -42.321178      -10.008428
 H         -15.504424      -44.589741      -12.507678
 H         -14.977050      -43.008621      -12.131465
 H         -17.363495      -42.843864      -12.376641
 H         -17.663109      -44.328274      -11.428028
