20
 generated by VMD
 C         -21.233349      -52.142403       -9.912604
 N         -21.438829      -52.933708      -10.736847
 H         -19.649572      -50.207443      -12.286662
 H         -21.175175      -51.285679       -9.200639
 C         -18.643757      -50.309711      -12.688793
 C         -18.179882      -51.584961      -13.309226
 C         -17.609537      -49.403957      -12.214748
 C         -16.784788      -51.675304      -14.114084
 C         -16.344128      -49.403370      -13.123135
 C         -15.755426      -50.759754      -13.450632
 H         -18.954140      -52.052120      -13.957415
 H         -18.075781      -52.234100      -12.477823
 H         -17.871281      -48.363163      -12.117653
 H         -17.355001      -49.666637      -11.159652
 H         -16.884136      -51.472702      -15.188855
 H         -16.428263      -52.703712      -14.054409
 H         -15.553716      -48.866203      -12.563301
 H         -16.565367      -48.808235      -14.090022
 H         -14.904791      -50.601044      -14.127093
 H         -15.338941      -51.247280      -12.565248
