20
 generated by VMD
 C         -73.655869     -200.276733      -65.709122
 N         -73.472870     -201.052856      -64.869995
 H         -72.175995     -197.391327      -66.738670
 H         -73.824783     -199.674942      -66.651772
 C         -72.618317     -196.802261      -67.553757
 C         -73.534470     -195.700317      -67.227585
 C         -72.467606     -197.309982      -68.926941
 C         -74.138428     -195.029984      -68.414696
 C         -73.851006     -197.391037      -69.529831
 C         -74.629173     -196.043243      -69.525856
 H         -73.104897     -194.919434      -66.706642
 H         -74.369164     -196.119522      -66.598251
 H         -71.776649     -196.732574      -69.594330
 H         -72.066383     -198.374664      -68.970741
 H         -73.364342     -194.357468      -68.822029
 H         -75.015015     -194.415665      -68.143341
 H         -74.494621     -198.122818      -69.053810
 H         -73.684273     -197.686249      -70.609024
 H         -74.667572     -195.423996      -70.439110
 H         -75.599480     -196.247116      -69.277794
