20
 generated by VMD
 C         -21.206152      -52.219517       -9.732430
 N         -21.413715      -52.768475      -10.750541
 H         -19.645124      -49.952087      -12.421668
 H         -21.064459      -51.522743       -9.051380
 C         -18.629036      -50.254318      -12.668673
 C         -18.067907      -51.533638      -13.065794
 C         -17.469250      -49.358044      -12.247583
 C         -16.838854      -51.518826      -13.972202
 C         -16.319677      -49.194817      -13.262403
 C         -15.724530      -50.563042      -13.515594
 H         -18.765707      -52.174381      -13.606134
 H         -17.903650      -52.148670      -12.128343
 H         -17.831400      -48.328968      -12.031343
 H         -17.029392      -49.735580      -11.336540
 H         -17.236919      -51.111839      -14.904340
 H         -16.555058      -52.581753      -14.110710
 H         -15.446453      -48.497547      -13.000797
 H         -16.776789      -48.785030      -14.117503
 H         -14.911438      -50.524330      -14.212806
 H         -15.279024      -50.976429      -12.653490
