20
 generated by VMD
 C         -68.101479     -179.095764      -58.291893
 N         -67.117569     -178.613281      -57.874428
 H         -65.721481     -176.268677      -58.689430
 H         -68.910324     -179.672974      -58.658558
 C         -65.345421     -175.792252      -59.638382
 C         -66.157738     -174.764786      -60.271580
 C         -63.842251     -175.889801      -59.657757
 C         -65.389458     -173.353394      -60.264713
 C         -63.106701     -174.619751      -59.697227
 C         -63.823025     -173.605927      -60.588955
 H         -67.125877     -174.626297      -59.761211
 H         -66.240738     -175.088837      -61.260368
 H         -63.618732     -176.350922      -58.644321
 H         -63.545761     -176.633698      -60.353172
 H         -65.438614     -172.829071      -59.219032
 H         -65.929024     -172.535690      -60.851158
 H         -62.140636     -174.942184      -60.056610
 H         -62.830070     -174.105377      -58.715168
 H         -63.422806     -172.612747      -60.297203
 H         -63.803246     -173.782303      -61.625534
