20
 generated by VMD
 C         -28.075338      -87.183594      -27.145763
 N         -27.709442      -86.937302      -26.071291
 H         -31.248428      -88.321693      -25.244307
 H         -28.382772      -87.532539      -28.186806
 C         -32.235710      -88.365852      -25.675915
 C         -33.397953      -88.641602      -24.879654
 C         -32.335064      -88.424843      -27.181015
 C         -34.524685      -87.702797      -25.246742
 C         -33.626709      -87.583084      -27.763962
 C         -34.814503      -87.746765      -26.811867
 H         -33.340851      -88.461815      -23.847649
 H         -33.512508      -89.756088      -24.847246
 H         -31.472378      -88.041191      -27.667871
 H         -32.519711      -89.440224      -27.560047
 H         -34.256996      -86.611343      -25.042093
 H         -35.485924      -87.944031      -24.764242
 H         -33.867107      -87.899048      -28.820189
 H         -33.173351      -86.674347      -27.699606
 H         -35.557297      -87.034538      -27.127136
 H         -35.236763      -88.677788      -27.048504
