20
 generated by VMD
 C         -30.121281      -92.735733      -25.310558
 N         -30.844694      -93.506371      -25.825592
 H         -32.955193      -91.706299      -26.575670
 H         -29.572243      -91.995628      -24.764935
 C         -33.618546      -91.280281      -27.284832
 C         -34.869194      -92.109863      -27.406771
 C         -33.213097      -90.513657      -28.501019
 C         -35.874012      -91.650352      -28.507416
 C         -34.341396      -90.046806      -29.465776
 C         -35.343052      -91.077957      -29.786707
 H         -35.626747      -92.043373      -26.508821
 H         -34.601624      -93.223206      -27.514635
 H         -32.563492      -89.664955      -28.176649
 H         -32.633900      -91.187836      -29.120234
 H         -36.510216      -90.890602      -28.084658
 H         -36.596828      -92.514679      -28.789890
 H         -33.730278      -89.638237      -30.313112
 H         -34.831875      -89.197128      -28.897678
 H         -36.233253      -90.686775      -30.228952
 H         -34.886433      -91.832504      -30.427174
