20
 generated by VMD
 C         -29.609211      -89.504517      -25.041496
 N         -29.155832      -89.372704      -26.129553
 H         -32.064602      -90.834534      -26.833879
 H         -30.213310      -89.584770      -24.146423
 C         -32.894314      -90.680092      -27.509298
 C         -34.177834      -91.043472      -26.958086
 C         -32.793972      -89.557755      -28.516491
 C         -35.025894      -89.807945      -26.558649
 C         -33.500229      -88.303291      -27.979698
 C         -34.916981      -88.610321      -27.475313
 H         -34.073494      -91.814804      -26.163010
 H         -34.687408      -91.478851      -27.816216
 H         -31.801945      -89.235252      -28.862993
 H         -33.427525      -89.856415      -29.335510
 H         -34.780117      -89.433914      -25.596279
 H         -36.025986      -90.161972      -26.356030
 H         -33.554173      -87.458199      -28.629301
 H         -32.803596      -87.980431      -27.219770
 H         -35.338963      -87.678848      -26.995331
 H         -35.586693      -88.768738      -28.440596
