20
 generated by VMD
 C         -60.134277     -156.268753      -55.037514
 N         -60.414288     -155.158829      -55.410095
 H         -59.977516     -157.630508      -51.713444
 H         -59.875134     -157.208496      -54.478287
 C         -58.916939     -157.507202      -52.094078
 C         -58.262207     -156.123978      -52.251614
 C         -57.965744     -158.636917      -51.918583
 C         -57.078609     -155.872223      -51.162354
 C         -57.052845     -158.327484      -50.821175
 C         -56.228901     -157.036163      -51.024590
 H         -59.002552     -155.343094      -52.192539
 H         -57.695824     -156.139679      -53.141605
 H         -58.638058     -159.516220      -51.751808
 H         -57.440769     -158.767258      -52.908207
 H         -57.642597     -155.662903      -50.222839
 H         -56.467030     -155.079086      -51.468369
 H         -56.314556     -159.129242      -50.858612
 H         -57.677357     -158.364059      -49.910439
 H         -55.642063     -156.898529      -50.020126
 H         -55.611244     -157.191559      -51.872257
