20
 generated by VMD
 C         -56.456509     -150.097382      -47.688221
 N         -57.572540     -150.335648      -47.696518
 H         -53.230473     -148.092621      -47.476658
 H         -55.426762     -149.970734      -47.599113
 C         -53.633209     -147.773239      -48.508389
 C         -53.112736     -148.512619      -49.624592
 C         -54.504936     -146.617584      -48.505863
 C         -54.139416     -148.696518      -50.698540
 C         -55.459499     -146.754257      -49.657257
 C         -54.960407     -147.396576      -50.938515
 H         -52.769150     -149.409912      -49.131611
 H         -52.292591     -147.910553      -50.040813
 H         -55.169926     -146.374176      -47.589897
 H         -53.917397     -145.701447      -48.572746
 H         -54.804188     -149.539520      -50.397758
 H         -53.645802     -148.924911      -51.668652
 H         -56.053223     -145.719650      -49.796822
 H         -56.176231     -147.418762      -49.252148
 H         -55.910183     -147.688782      -51.487446
 H         -54.385994     -146.663620      -51.523895
