20
 generated by VMD
 C          -1.573530       -9.317474       -0.061220
 N          -2.592321       -9.033182        0.311964
 H          -2.655763      -10.594778        2.377016
 H          -2.172330      -11.521624        3.917532
 C          -2.814394      -11.510331        2.959404
 C          -2.643558      -12.799500        2.038192
 C          -4.285245      -11.283690        3.405977
 C          -3.347828      -14.029285        2.673508
 C          -4.857856      -12.542397        4.060642
 C          -4.798733      -13.726875        3.064545
 H          -1.557046      -12.920735        1.919631
 H          -3.134160      -12.553624        1.124401
 H          -4.236830      -10.440989        4.118100
 H          -4.838816      -10.941573        2.571813
 H          -2.803118      -14.209085        3.575488
 H          -3.266384      -14.851358        1.947181
 H          -5.915193      -12.398120        4.337266
 H          -4.280060      -12.735380        4.959909
 H          -5.182006      -14.704028        3.420261
 H          -5.305521      -13.392856        2.121825
