20
 generated by VMD
 C         -57.796597     -165.525040      -56.423679
 N         -57.227215     -164.773026      -57.144947
 H         -60.302387     -164.816208      -54.281456
 H         -58.233452     -166.269791      -55.719761
 C         -61.245796     -164.894241      -54.676197
 C         -61.963402     -166.121292      -54.237930
 C         -61.810074     -163.897278      -55.610504
 C         -63.405991     -166.110352      -54.636147
 C         -63.260662     -164.057068      -55.769188
 C         -63.748241     -165.493912      -55.933121
 H         -61.753429     -166.352539      -53.203617
 H         -61.426147     -166.972549      -54.724159
 H         -61.514549     -162.778687      -55.260818
 H         -61.352955     -164.071442      -56.612659
 H         -63.797482     -165.548050      -53.718075
 H         -63.797272     -167.182983      -54.583641
 H         -63.755974     -163.440918      -56.575420
 H         -63.837051     -163.527405      -55.064972
 H         -64.844246     -165.395096      -56.077564
 H         -63.176582     -165.978256      -56.806740
