20
 generated by VMD
 C         -67.622368     -191.787537      -67.256775
 N         -67.028549     -192.593185      -66.684746
 H         -70.459984     -189.291321      -66.073982
 H         -67.974815     -190.922714      -67.895256
 C         -71.175285     -189.784210      -65.477097
 C         -71.723709     -191.141113      -65.857971
 C         -71.441109     -189.286102      -64.094040
 C         -73.121590     -191.224945      -65.392738
 C         -72.811966     -189.575073      -63.527908
 C         -73.253525     -191.026031      -63.831841
 H         -71.100967     -191.982254      -65.420952
 H         -71.588814     -191.353088      -66.882637
 H         -70.559662     -189.489624      -63.395580
 H         -71.378479     -188.198044      -64.051628
 H         -73.561325     -192.235489      -65.676613
 H         -73.655037     -190.356705      -65.765022
 H         -73.601883     -188.997910      -64.064659
 H         -72.818153     -189.457413      -62.421848
 H         -72.665436     -191.933136      -63.421196
 H         -74.236481     -191.288254      -63.274086
