20
 generated by VMD
 C          -4.235446      -20.821054        2.880998
 N          -4.774129      -19.846323        2.807858
 H          -5.034172      -18.986393       -0.366016
 H          -5.857970      -20.545679       -0.296647
 C          -5.874785      -19.580709       -0.802078
 C          -5.681129      -19.744246       -2.293810
 C          -7.252023      -18.977123       -0.476057
 C          -6.804456      -20.428900       -3.067568
 C          -8.375303      -19.732782       -1.281915
 C          -8.152802      -19.861191       -2.732551
 H          -4.646105      -20.209595       -2.483483
 H          -5.556654      -18.714350       -2.636057
 H          -7.466290      -19.063644        0.550445
 H          -7.326828      -17.953394       -0.714943
 H          -6.758983      -21.511036       -2.806387
 H          -6.681326      -20.413017       -4.146537
 H          -9.296901      -19.164953       -1.062799
 H          -8.459976      -20.742662       -0.807284
 H          -8.982582      -20.487251       -3.154666
 H          -8.229487      -18.941877       -3.351587
