20
 generated by VMD
 C         -19.875784      -50.208092      -10.051484
 N         -20.073179      -51.230732       -9.533500
 H         -17.035118      -48.632462       -9.995646
 H         -19.999874      -49.479965      -10.639423
 C         -16.983059      -48.898937      -11.070652
 C         -15.885778      -49.817657      -11.621886
 C         -17.695166      -47.938076      -11.981309
 C         -16.275618      -50.254105      -13.048971
 C         -17.816488      -48.337536      -13.435189
 C         -16.483952      -49.000782      -13.912453
 H         -15.802832      -50.645939      -10.952018
 H         -14.909868      -49.275196      -11.703867
 H         -18.622135      -47.602066      -11.517606
 H         -17.107792      -47.034451      -11.929144
 H         -17.199156      -50.872978      -13.094598
 H         -15.377885      -50.802074      -13.456575
 H         -18.003714      -47.489594      -14.055567
 H         -18.643404      -49.147156      -13.465838
 H         -16.700529      -49.318729      -14.981211
 H         -15.604705      -48.307217      -13.913088
