20
 generated by VMD
 C         -36.782711      -98.341919      -25.885397
 N         -37.169930      -98.377090      -26.968058
 H         -36.031540      -96.130753      -28.409986
 H         -36.323021      -98.336914      -24.902981
 C         -35.628105      -95.950859      -29.404455
 C         -35.704914      -96.635887      -30.693626
 C         -34.437550      -94.970055      -29.169508
 C         -35.038528      -95.885582      -31.820837
 C         -33.960247      -94.226410      -30.394819
 C         -33.759083      -95.226006      -31.560333
 H         -36.774715      -96.815544      -31.053793
 H         -35.165539      -97.587761      -30.597782
 H         -34.766468      -94.291580      -28.364136
 H         -33.543011      -95.423134      -28.776711
 H         -35.781868      -95.085152      -32.163059
 H         -34.893093      -96.451355      -32.705639
 H         -33.050022      -93.650879      -30.083464
 H         -34.776508      -93.517311      -30.644110
 H         -33.545433      -94.612610      -32.350368
 H         -32.732250      -95.865570      -31.415359
