20
 generated by VMD
 C         -40.046467      -99.528435      -28.746162
 N         -39.219841     -100.055061      -28.114059
 H         -37.478100      -98.723419      -30.465630
 H         -40.616535      -98.839455      -29.408892
 C         -36.476768      -98.380135      -30.704504
 C         -35.809807      -98.789467      -32.044231
 C         -35.478386      -98.255409      -29.645967
 C         -34.642952      -97.870407      -32.390846
 C         -34.344353      -97.222328      -29.978228
 C         -33.488464      -97.812057      -31.289402
 H         -36.588589      -98.875282      -32.910484
 H         -35.331627      -99.744102      -31.910322
 H         -36.044243      -97.779419      -28.772394
 H         -35.195236      -99.280205      -29.454964
 H         -34.981640      -96.866653      -32.516289
 H         -34.018078      -98.254211      -33.263107
 H         -33.590057      -97.028122      -29.134037
 H         -34.882977      -96.258057      -30.126307
 H         -32.731941      -97.149002      -31.608644
 H         -33.114880      -98.818359      -30.905529
