20
 generated by VMD
 C         -20.005905      -50.173985       -9.959335
 N         -19.942965      -51.236809       -9.546748
 H         -16.851461      -48.444607       -9.947734
 H         -19.861824      -48.903423      -10.095151
 C         -16.907635      -48.728905      -11.007657
 C         -15.976900      -49.746342      -11.619567
 C         -17.576416      -47.785461      -11.948842
 C         -16.112421      -50.148178      -13.106131
 C         -17.840010      -48.417065      -13.340918
 C         -16.585571      -49.009548      -13.984231
 H         -16.078075      -50.650826      -10.975804
 H         -14.942338      -49.506924      -11.432389
 H         -18.512959      -47.411945      -11.534025
 H         -16.957176      -46.878609      -12.072476
 H         -16.665096      -51.079239      -13.289719
 H         -15.142256      -50.468132      -13.462681
 H         -18.290243      -47.657276      -14.091995
 H         -18.603485      -49.137608      -13.233498
 H         -16.901064      -49.366932      -14.934058
 H         -15.839857      -48.240402      -14.001567
