20
 generated by VMD
 C          -1.510181      -11.078807        1.534517
 N          -1.045050      -11.950203        1.075759
 H          -3.814300      -13.127487        0.174497
 H          -5.337727      -12.769645        0.782120
 C          -4.576010      -13.543466        0.809289
 C          -4.069552      -13.845145        2.193641
 C          -5.124762      -14.866517        0.149194
 C          -5.072092      -14.505030        3.128670
 C          -6.160898      -15.541515        1.019637
 C          -5.642968      -15.812820        2.449893
 H          -3.640418      -12.945726        2.640759
 H          -3.201198      -14.588234        2.075089
 H          -5.426385      -14.665546       -0.834458
 H          -4.336059      -15.545329       -0.005093
 H          -5.937749      -13.813792        3.413752
 H          -4.600373      -14.792426        4.079600
 H          -6.456551      -16.532034        0.654288
 H          -7.113660      -14.985306        1.139921
 H          -6.493420      -16.116968        3.044605
 H          -4.981566      -16.624779        2.532258
