20
 generated by VMD
 C         -37.925179     -114.189255      -35.297443
 N         -38.591091     -115.132690      -35.123684
 H         -41.438644     -115.285431      -36.568409
 H         -37.253139     -113.505348      -35.697033
 C         -42.489002     -115.049622      -36.853909
 C         -42.874645     -114.962357      -38.285561
 C         -43.513565     -114.965576      -35.722084
 C         -44.040524     -115.892410      -38.474045
 C         -44.776505     -115.653366      -36.042912
 C         -45.182163     -115.459770      -37.572784
 H         -41.997322     -115.233589      -38.894760
 H         -43.204277     -113.924797      -38.396591
 H         -43.037052     -115.250725      -34.791397
 H         -43.850094     -113.961380      -35.526566
 H         -43.724583     -116.888138      -38.300205
 H         -44.197594     -115.747025      -39.567287
 H         -45.582130     -115.240227      -35.415619
 H         -44.906059     -116.763855      -35.822674
 H         -46.151108     -116.153214      -37.631351
 H         -45.600163     -114.411369      -37.655689
