20
 generated by VMD
 C         -38.049427     -114.570015      -35.399559
 N         -38.862865     -115.193855      -34.910130
 H         -41.522202     -115.534325      -36.471695
 H         -37.196690     -113.863136      -35.647980
 C         -42.547115     -115.222092      -36.920761
 C         -42.841061     -115.171982      -38.398495
 C         -43.518764     -114.996841      -35.858418
 C         -44.143661     -115.887192      -38.601978
 C         -44.720440     -115.895660      -36.151375
 C         -45.179413     -115.556946      -37.554668
 H         -41.925636     -115.505310      -38.905746
 H         -43.044960     -114.107010      -38.699406
 H         -43.105179     -115.220459      -34.823635
 H         -43.821159     -113.897133      -35.970272
 H         -43.870674     -116.936012      -38.610382
 H         -44.486099     -115.695969      -39.593796
 H         -45.674324     -115.709206      -35.560402
 H         -44.426792     -116.999947      -36.015209
 H         -46.110832     -116.233711      -37.721012
 H         -45.677471     -114.396072      -37.684772
