20
 generated by VMD
 C         -22.681959      -52.305660      -11.837575
 N         -22.639446      -52.625092      -10.715173
 H         -20.041611      -52.365139      -13.920522
 H         -23.096495      -52.145638      -13.067983
 C         -18.893320      -52.487736      -13.848332
 C         -17.956011      -51.817451      -14.836376
 C         -18.362803      -53.323914      -12.772341
 C         -16.508499      -52.241539      -14.614340
 C         -17.124481      -52.679115      -12.084352
 C         -16.113073      -52.134342      -13.133927
 H         -18.063679      -50.774940      -14.765427
 H         -18.173594      -52.069672      -15.895659
 H         -19.177666      -53.352222      -11.973025
 H         -18.211615      -54.357914      -13.103359
 H         -15.929969      -51.641434      -15.331539
 H         -16.454346      -53.274158      -14.982153
 H         -16.662611      -53.302834      -11.376008
 H         -17.501444      -51.841431      -11.466796
 H         -15.989966      -51.100132      -12.872792
 H         -15.149528      -52.612442      -13.067561
