20
 generated by VMD
 C         -77.392555     -202.834930      -68.978943
 N         -77.535789     -203.796799      -68.298492
 H         -75.349609     -201.776093      -67.479080
 H         -77.331909     -202.018677      -69.728706
 C         -74.738495     -201.208710      -68.099686
 C         -75.197563     -199.895752      -68.525505
 C         -73.764076     -201.920868      -68.894653
 C         -74.486504     -199.265320      -69.737282
 C         -73.214867     -201.354996      -70.196747
 C         -74.050850     -200.284866      -70.831841
 H         -75.053406     -199.159058      -67.689972
 H         -76.250473     -199.989624      -68.852264
 H         -72.907791     -202.226746      -68.263573
 H         -74.137375     -202.916321      -69.106682
 H         -73.596542     -198.854965      -69.216705
 H         -75.042900     -198.328400      -70.005417
 H         -73.051071     -202.126755      -71.050087
 H         -72.248672     -200.764526      -69.931648
 H         -73.370079     -199.861328      -71.574699
 H         -74.796417     -200.878006      -71.285706
