20
 generated by VMD
 C         -23.214025      -53.382805      -13.863578
 N         -23.855850      -52.958473      -14.727444
 H         -20.517494      -55.627831      -13.962875
 H         -22.391420      -53.494289      -12.919005
 C         -19.644901      -55.210365      -14.217147
 C         -19.192444      -53.868389      -13.808614
 C         -18.514185      -56.171478      -14.610270
 C         -18.019344      -54.046978      -12.790669
 C         -17.611265      -56.333847      -13.391264
 C         -16.952909      -55.014999      -13.255925
 H         -19.917957      -53.236118      -13.389503
 H         -18.802942      -53.386482      -14.678892
 H         -18.888691      -57.174175      -14.906268
 H         -17.939690      -55.817566      -15.423074
 H         -18.393862      -54.375374      -11.818547
 H         -17.698608      -53.022877      -12.586461
 H         -16.829903      -57.114101      -13.623846
 H         -18.177496      -56.671741      -12.565287
 H         -16.060852      -55.117115      -12.570431
 H         -16.448568      -54.637547      -14.218833
