20
 generated by VMD
 C         -51.594013     -145.888504      -43.900101
 N         -51.471191     -146.439346      -44.946579
 H         -53.877735     -145.425140      -46.895714
 H         -51.749668     -145.496338      -42.924278
 C         -53.869270     -144.658279      -47.697842
 C         -52.806835     -144.538177      -48.688816
 C         -54.843914     -143.442642      -47.411331
 C         -53.424252     -143.984634      -50.123295
 C         -55.362724     -143.044647      -48.731411
 C         -54.381702     -142.726120      -49.825359
 H         -52.427719     -145.500702      -49.074631
 H         -51.874153     -143.897522      -48.312485
 H         -55.597569     -143.727219      -46.675766
 H         -54.370193     -142.674896      -46.921822
 H         -53.979008     -144.749466      -50.567844
 H         -52.705688     -143.680832      -50.777031
 H         -56.048080     -142.255005      -48.815575
 H         -56.003460     -143.914291      -49.120602
 H         -54.878796     -142.358139      -50.788403
 H         -53.631023     -141.876938      -49.436543
