20
 generated by VMD
 C         -41.601742     -119.525131      -34.408604
 N         -41.375698     -120.123962      -35.366894
 H         -43.328487     -118.866371      -36.896320
 H         -41.562061     -118.818649      -33.564766
 C         -43.744106     -118.230980      -37.618797
 C         -42.989422     -118.271233      -38.895531
 C         -45.125454     -117.563293      -37.719051
 C         -43.799305     -118.581497      -40.143295
 C         -45.894470     -118.107742      -38.943390
 C         -45.140717     -117.821686      -40.230190
 H         -42.220467     -119.029953      -38.733002
 H         -42.545013     -117.333260      -38.983261
 H         -45.808430     -117.864761      -36.887028
 H         -45.024715     -116.436615      -37.631897
 H         -44.166054     -119.625137      -40.114098
 H         -43.193951     -118.567406      -41.016125
 H         -46.865959     -117.642899      -39.190308
 H         -46.210102     -119.219650      -38.964153
 H         -45.665379     -118.365952      -41.080971
 H         -45.041882     -116.777184      -40.674965
