20
 generated by VMD
 C         -59.446331     -157.948456      -56.303162
 N         -58.937119     -158.690536      -57.028572
 H         -60.466400     -157.850693      -53.401630
 H         -59.979424     -157.249466      -55.658867
 C         -59.958752     -158.592896      -52.818428
 C         -58.569359     -158.393173      -52.448326
 C         -60.406471     -160.051865      -53.148460
 C         -57.937134     -159.552399      -51.631729
 C         -60.010635     -161.161835      -52.079418
 C         -58.405228     -160.960571      -51.929768
 H         -58.368504     -157.444885      -51.852123
 H         -57.946499     -158.469223      -53.364223
 H         -61.505573     -160.162216      -53.346611
 H         -60.034119     -160.254974      -54.107746
 H         -58.143311     -159.442551      -50.608440
 H         -56.741398     -159.465408      -51.635475
 H         -60.384319     -162.116013      -52.416561
 H         -60.426762     -161.034576      -51.051624
 H         -57.967468     -161.715988      -51.254150
 H         -58.008987     -161.357819      -53.000957
