20
 generated by VMD
 C         -57.003593     -163.414352      -56.623840
 N         -57.219425     -162.468399      -57.315498
 H         -59.828407     -165.215530      -54.821831
 H         -56.912598     -164.289780      -55.964298
 C         -60.818890     -164.888748      -54.727421
 C         -61.451267     -164.913712      -53.391403
 C         -61.552574     -164.469955      -55.898563
 C         -62.725201     -164.078186      -53.256538
 C         -62.862190     -163.779510      -55.607082
 C         -63.586098     -164.261337      -54.415062
 H         -60.713661     -164.474075      -52.688526
 H         -61.723705     -165.935974      -53.287674
 H         -61.000561     -163.802536      -56.476414
 H         -61.625278     -165.364349      -56.530525
 H         -62.473194     -163.008804      -53.100449
 H         -63.152840     -164.283508      -52.296692
 H         -63.565098     -163.842346      -56.513294
 H         -62.707706     -162.633484      -55.435650
 H         -64.595970     -163.764969      -54.332741
 H         -63.755898     -165.430023      -54.625317
