20
 generated by VMD
 C         -56.171326     -150.174088      -47.152649
 N         -57.102154     -150.278366      -46.493580
 H         -53.397316     -147.847061      -47.488937
 H         -55.266628     -150.190750      -47.685379
 C         -53.773224     -147.589401      -48.445240
 C         -53.155216     -148.112732      -49.670521
 C         -54.494831     -146.362915      -48.647869
 C         -54.079437     -148.018845      -50.901642
 C         -55.389126     -146.260941      -49.830887
 C         -54.690258     -146.650986      -51.039688
 H         -52.822521     -149.273270      -49.620934
 H         -52.191978     -147.627792      -49.764679
 H         -55.135780     -146.299942      -47.736282
 H         -54.000511     -145.464981      -48.585728
 H         -54.775520     -148.887436      -50.858166
 H         -53.426121     -148.271484      -51.783699
 H         -55.801594     -145.255859      -49.967037
 H         -56.212227     -146.929245      -49.555515
 H         -55.295372     -146.542511      -51.973576
 H         -53.889755     -145.919891      -51.227268
