20
 generated by VMD
 C         -26.743061      -71.850395      -17.562454
 N         -26.754133      -72.777283      -16.849123
 H         -24.141520      -69.447380      -18.832165
 H         -26.873737      -70.948875      -18.133186
 C         -24.737305      -69.815926      -19.667704
 C         -24.116999      -71.039955      -20.413229
 C         -25.680696      -68.984077      -20.432844
 C         -25.114071      -71.868172      -21.237646
 C         -26.648741      -69.918327      -21.141867
 C         -26.039373      -70.933037      -22.128229
 H         -23.572420      -71.729256      -19.687311
 H         -23.291433      -70.575066      -21.101961
 H         -26.341141      -68.336960      -19.745255
 H         -25.067795      -68.388237      -21.117159
 H         -25.765623      -72.337593      -20.543013
 H         -24.558056      -72.662437      -21.768988
 H         -27.394253      -69.362358      -21.760199
 H         -27.196066      -70.655205      -20.468586
 H         -26.811756      -71.526642      -22.612608
 H         -25.423058      -70.541916      -22.925077
