20
 generated by VMD
 C         -13.466259      -30.749056       -8.314369
 N         -13.284851      -30.044750       -9.186868
 H         -11.186894      -31.873049       -6.131350
 H         -11.518243      -31.684408       -4.393109
 C         -11.148978      -32.424519       -5.195138
 C          -9.636575      -32.952175       -4.937294
 C         -12.102309      -33.580334       -5.396100
 C          -9.472134      -34.100151       -3.903483
 C         -11.923353      -34.687656       -4.362116
 C         -10.480480      -35.187443       -4.289582
 H          -9.008403      -32.085693       -4.723389
 H          -9.285120      -33.248703       -5.954243
 H         -13.109516      -33.198242       -5.248819
 H         -12.126804      -33.995335       -6.403416
 H          -9.606011      -33.809547       -2.854613
 H          -8.440297      -34.429859       -3.905211
 H         -12.630173      -35.448532       -4.558139
 H         -12.242346      -34.350040       -3.359642
 H         -10.456615      -35.934608       -3.508702
 H         -10.124729      -35.610783       -5.247779
