20
 generated by VMD
 C         -79.454033     -208.983276      -76.352257
 N         -79.095245     -209.908569      -76.951393
 H         -77.687645     -209.230087      -72.900200
 H         -79.814476     -208.063477      -75.771751
 C         -77.926735     -210.203812      -72.483566
 C         -76.999779     -210.713882      -71.376984
 C         -79.105225     -210.990799      -72.848396
 C         -77.823402     -211.228851      -70.235123
 C         -79.697113     -211.757919      -71.652283
 C         -78.747971     -212.271835      -70.712761
 H         -76.443504     -209.843872      -70.994461
 H         -76.226974     -211.394699      -71.624001
 H         -79.925568     -210.433319      -73.101715
 H         -78.858742     -211.656097      -73.687248
 H         -78.285988     -210.329285      -69.801575
 H         -77.058647     -211.702530      -69.591446
 H         -80.349472     -212.533997      -72.018501
 H         -80.283363     -211.051697      -71.059074
 H         -79.121338     -213.004562      -69.991486
 H         -77.998901     -212.887375      -71.243179
