20
 generated by VMD
 C         -40.915268     -100.811356      -32.797241
 N         -41.608276     -101.204155      -31.938833
 H         -38.424534     -102.831284      -32.257118
 H         -40.062683     -100.577988      -33.400120
 C         -37.365948     -102.848007      -31.983952
 C         -36.135414     -102.699440      -32.737915
 C         -37.277138     -102.733482      -30.534243
 C         -35.246494     -101.520432      -32.394684
 C         -36.310535     -101.697319      -30.131207
 C         -34.988110     -101.623772      -30.904053
 H         -36.520741     -102.617249      -33.794590
 H         -35.554222     -103.616913      -32.632690
 H         -38.214653     -102.558144      -30.123352
 H         -36.899487     -103.658073      -30.059650
 H         -35.762253     -100.667366      -32.827267
 H         -34.310982     -101.616768      -33.063759
 H         -36.217060     -101.884323      -28.976980
 H         -36.828037     -100.749634      -30.258541
 H         -34.511974     -100.684692      -30.584923
 H         -34.322754     -102.452133      -30.573397
