20
 generated by VMD
 C         -20.324072      -57.315765      -16.645723
 N         -19.669739      -56.362755      -16.624636
 H         -22.784853      -59.992718      -17.708475
 H         -21.254133      -58.058285      -16.790253
 C         -22.583941      -60.633995      -16.920664
 C         -23.601700      -60.556015      -15.786361
 C         -21.209976      -61.255222      -16.792049
 C         -22.663530      -60.474770      -14.532784
 C         -21.019787      -62.133774      -15.488341
 C         -22.027260      -61.866638      -14.412721
 H         -24.445930      -61.268497      -15.723720
 H         -24.117697      -59.579960      -15.849164
 H         -21.079996      -61.872288      -17.701571
 H         -20.472847      -60.441639      -16.846149
 H         -23.346502      -60.368023      -13.693686
 H         -21.906273      -59.618954      -14.620333
 H         -19.998901      -61.764675      -15.126792
 H         -20.697523      -63.189037      -15.558155
 H         -22.765779      -62.672089      -14.432124
 H         -21.555313      -61.897728      -13.440134
