20
 generated by VMD
 C         -62.494362     -174.078934      -55.140045
 N         -63.678223     -174.130890      -55.267063
 H         -62.513336     -172.490585      -58.133129
 H         -61.413734     -173.988892      -55.107285
 C         -63.112900     -171.602905      -58.406311
 C         -63.129623     -170.430298      -57.590145
 C         -64.126518     -171.961899      -59.357590
 C         -63.744427     -169.227600      -58.244694
 C         -64.611725     -170.774963      -60.156837
 C         -64.918495     -169.572601      -59.186737
 H         -62.182404     -170.104233      -57.336227
 H         -63.707161     -170.535492      -56.607315
 H         -63.672199     -172.580902      -60.096203
 H         -65.045586     -172.335770      -58.936821
 H         -62.941963     -168.714294      -58.864017
 H         -64.087036     -168.471542      -57.398018
 H         -65.538719     -171.032150      -60.680099
 H         -63.914852     -170.548065      -60.921341
 H         -65.220474     -168.644257      -59.672794
 H         -65.757286     -169.885071      -58.584919
