20
 generated by VMD
 C         -59.833008     -152.354828      -51.062527
 N         -60.701641     -153.140381      -51.133236
 H         -56.756065     -152.174026      -48.709930
 H         -59.054989     -151.559784      -50.963928
 C         -55.981804     -151.702530      -49.308624
 C         -54.804340     -152.620346      -49.682713
 C         -55.996624     -150.306519      -49.509762
 C         -54.001015     -152.251389      -51.044178
 C         -55.213737     -150.015930      -50.889790
 C         -53.748207     -150.715332      -50.973553
 H         -55.233070     -153.592316      -49.887333
 H         -54.142387     -152.738037      -48.725567
 H         -56.946285     -149.846390      -49.607044
 H         -55.458408     -149.824142      -48.699520
 H         -54.512154     -152.527786      -52.016037
 H         -53.051731     -152.746063      -51.058632
 H         -54.883675     -148.910385      -50.869915
 H         -55.843987     -150.200623      -51.729233
 H         -53.113068     -150.309509      -51.855873
 H         -53.271812     -150.569336      -50.008793
