20
 generated by VMD
 C         -38.723709     -113.681801      -35.701389
 N         -37.851536     -114.464867      -35.803574
 H         -41.370617     -114.770042      -35.683937
 H         -39.561275     -112.970459      -35.769463
 C         -42.255989     -114.416389      -36.181305
 C         -42.390656     -114.611351      -37.698940
 C         -43.544945     -114.227875      -35.324371
 C         -43.674809     -115.413193      -38.102272
 C         -44.493835     -115.341255      -35.781940
 C         -44.910957     -115.049088      -37.230255
 H         -41.634964     -115.190353      -38.160984
 H         -42.364239     -113.736572      -38.271980
 H         -43.215416     -114.252518      -34.310356
 H         -43.930935     -113.248619      -35.478817
 H         -43.344711     -116.429146      -38.061859
 H         -43.926945     -115.192406      -39.199089
 H         -45.425076     -115.432358      -35.304176
 H         -44.058472     -116.264473      -35.495060
 H         -45.762779     -115.683372      -37.329777
 H         -45.312729     -114.015060      -37.401852
