20
 generated by VMD
 C         -77.090347     -203.633484      -66.847473
 N         -77.932037     -204.286087      -66.339333
 H         -75.791672     -200.549377      -68.946068
 H         -76.382919     -203.038788      -67.404762
 C         -74.913597     -200.005386      -69.065498
 C         -74.737923     -198.574982      -68.595390
 C         -73.737892     -200.828339      -69.707558
 C         -73.492935     -197.921738      -69.133995
 C         -72.781075     -199.938995      -70.652527
 C         -73.134903     -198.466446      -70.582947
 H         -74.689240     -198.596603      -67.450691
 H         -75.671738     -198.121170      -68.850632
 H         -73.042671     -201.054230      -68.835159
 H         -74.174980     -201.699707      -70.259926
 H         -72.632149     -198.151428      -68.457825
 H         -73.497353     -196.773941      -69.066765
 H         -72.780052     -200.320587      -71.692627
 H         -71.757317     -200.169098      -70.260468
 H         -72.253418     -197.733887      -70.916656
 H         -74.002388     -198.315262      -71.213715
