20
 generated by VMD
 C         -20.747656      -64.290298      -16.725525
 N         -19.652510      -63.952530      -16.633774
 H         -23.811512      -63.227921      -17.633648
 H         -21.735991      -64.899147      -16.925961
 C         -24.070799      -64.275200      -17.815228
 C         -24.516819      -64.477089      -19.282488
 C         -24.522255      -65.300140      -16.747953
 C         -24.899227      -65.892197      -19.617367
 C         -24.627436      -66.785851      -17.224701
 C         -25.411644      -66.869728      -18.502249
 H         -23.764879      -64.170341      -19.949318
 H         -25.347521      -63.760715      -19.552996
 H         -23.945730      -65.261177      -15.725843
 H         -25.603031      -65.020660      -16.384096
 H         -24.094252      -66.491432      -20.055786
 H         -25.761610      -65.961365      -20.311295
 H         -25.190079      -67.363594      -16.475634
 H         -23.614048      -67.296585      -17.283051
 H         -25.270496      -67.837814      -18.961710
 H         -26.542019      -66.687340      -18.270498
