20
 generated by VMD
 C         -67.754692     -178.023193      -57.767208
 N         -67.196526     -178.720062      -57.019733
 H         -64.800560     -176.420532      -59.037231
 H         -68.246124     -177.392029      -58.461159
 C         -64.555626     -175.472046      -59.447155
 C         -65.714890     -174.563385      -59.817417
 C         -63.322487     -175.097656      -60.227276
 C         -65.437790     -173.061096      -59.655655
 C         -63.014076     -173.719269      -60.125103
 C         -64.141487     -172.731506      -60.451344
 H         -66.633904     -174.820984      -59.205944
 H         -66.033577     -174.860413      -60.794056
 H         -62.526630     -175.827881      -59.992287
 H         -63.736023     -175.309006      -61.212021
 H         -65.199455     -172.885498      -58.580746
 H         -66.340614     -172.433838      -59.725212
 H         -62.092476     -173.612747      -60.632912
 H         -62.802013     -173.272858      -59.071728
 H         -63.875092     -171.653259      -60.252972
 H         -64.493614     -172.767746      -61.420536
