20
 generated by VMD
 C         -15.614983      -47.642513       -6.393960
 N         -15.704437      -46.593739       -6.025127
 H         -16.502293      -47.371368      -10.081988
 H         -15.314047      -47.068264      -11.267290
 C         -16.311895      -46.838715      -11.007164
 C         -16.389027      -45.397186      -10.658483
 C         -17.209658      -47.449024      -12.114193
 C         -16.151260      -44.724632      -11.956858
 C         -16.921593      -46.712112      -13.424405
 C         -17.006708      -45.217995      -13.146610
 H         -15.641685      -45.051914       -9.902321
 H         -17.448584      -45.239098      -10.327369
 H         -16.958508      -48.550827      -12.234346
 H         -18.287451      -47.361000      -11.915758
 H         -15.084105      -44.906960      -12.166142
 H         -16.312592      -43.641079      -11.887443
 H         -17.661472      -47.006374      -14.234077
 H         -16.033026      -47.074009      -13.858477
 H         -16.813265      -44.672520      -14.098109
 H         -18.035580      -44.910500      -13.008049
