20
 generated by VMD
 C         -53.641430     -147.785172      -45.456066
 N         -54.528717     -147.850327      -44.723648
 H         -55.219666     -147.667770      -49.113895
 H         -52.798588     -147.578613      -46.098305
 C         -54.524837     -146.800446      -49.064190
 C         -53.250797     -146.637070      -49.733253
 C         -55.014122     -145.725281      -48.083897
 C         -53.193703     -145.387344      -50.642357
 C         -55.195545     -144.482895      -49.000313
 C         -53.869804     -144.189041      -49.929276
 H         -53.060551     -147.436386      -50.431240
 H         -52.422905     -146.670700      -49.052620
 H         -55.946457     -146.032593      -47.525124
 H         -54.237637     -145.365707      -47.330532
 H         -54.042694     -145.604446      -51.318356
 H         -52.210293     -145.202621      -51.254429
 H         -55.417057     -143.669830      -48.427567
 H         -56.016983     -144.729889      -49.755150
 H         -54.211418     -143.340195      -50.538303
 H         -53.171143     -143.575180      -49.375690
