20
 generated by VMD
 C         -19.084185      -63.269588      -16.883215
 N         -20.183584      -62.880039      -16.992821
 H         -23.005732      -63.547119      -16.944000
 H         -18.079599      -63.406075      -16.621429
 C         -23.748285      -64.413315      -17.349302
 C         -24.367744      -64.156555      -18.708477
 C         -24.545588      -65.068596      -16.336040
 C         -24.617798      -65.471130      -19.405470
 C         -24.900839      -66.415939      -17.014278
 C         -25.541138      -66.237427      -18.406689
 H         -23.599293      -63.656479      -19.224363
 H         -25.198547      -63.470634      -18.597614
 H         -24.108345      -65.306198      -15.383991
 H         -25.442776      -64.335602      -16.038155
 H         -23.640373      -65.900986      -19.506046
 H         -25.095886      -65.247612      -20.398996
 H         -25.580193      -66.794655      -16.291769
 H         -24.082548      -67.148918      -17.055489
 H         -25.793482      -67.193642      -18.829990
 H         -26.479755      -65.613533      -18.348989
