20
 generated by VMD
 C         -12.586448      -30.255638       -8.088568
 N         -13.172742      -30.505070       -7.171272
 H         -11.255507      -30.242077       -5.279314
 H         -10.701436      -30.764130       -3.708457
 C         -10.905618      -31.197134       -4.693095
 C          -9.538762      -31.713793       -5.361306
 C         -11.948569      -32.339420       -4.575148
 C          -9.067881      -32.982971       -4.678838
 C         -11.437372      -33.573093       -3.825632
 C         -10.098088      -34.035149       -4.512073
 H          -8.761638      -30.962391       -5.220495
 H          -9.684482      -31.980499       -6.462710
 H         -12.806480      -31.911257       -4.037638
 H         -12.317158      -32.707615       -5.530980
 H          -8.645935      -32.734158       -3.717990
 H          -8.303952      -33.446228       -5.270544
 H         -12.202150      -34.358177       -3.892799
 H         -11.240452      -33.282627       -2.781896
 H          -9.649218      -34.786823       -3.861796
 H         -10.261363      -34.568275       -5.462077
