20
 generated by VMD
 C         -22.237877      -55.137684      -17.322617
 N         -22.670330      -55.121914      -18.402708
 H         -20.409922      -56.173443      -14.020890
 H         -21.719927      -54.783794      -16.479633
 C         -20.529348      -57.273586      -14.113151
 C         -20.928610      -58.123543      -12.940100
 C         -19.818577      -57.835415      -15.260153
 C         -20.937967      -59.615295      -13.109926
 C         -19.729145      -59.381996      -15.339693
 C         -19.684452      -60.075966      -13.985001
 H         -21.843246      -57.792145      -12.506218
 H         -20.236649      -57.969151      -12.133051
 H         -20.195499      -57.303333      -16.108250
 H         -18.718912      -57.501392      -15.120684
 H         -21.900394      -60.040501      -13.492965
 H         -20.799488      -59.938103      -12.028733
 H         -18.809801      -59.680553      -15.863922
 H         -20.661629      -59.779373      -15.839559
 H         -19.620169      -61.154617      -14.129961
 H         -18.723450      -59.783955      -13.465288
