20
 generated by VMD
 C         -77.375160     -203.395691      -67.541397
 N         -77.962730     -204.345551      -67.255623
 H         -74.659401     -200.986511      -67.491318
 H         -76.793808     -202.465088      -67.714111
 C         -74.408905     -200.505722      -68.425522
 C         -74.962936     -199.175629      -68.717880
 C         -73.987038     -201.331711      -69.533562
 C         -73.990639     -198.341263      -69.567513
 C         -72.909256     -200.592072      -70.357170
 C         -73.335594     -199.107239      -70.684486
 H         -75.173248     -198.651413      -67.760941
 H         -75.838737     -199.363144      -69.224197
 H         -73.517838     -202.288254      -69.157646
 H         -74.846008     -201.654648      -70.216492
 H         -73.151581     -197.901840      -68.965240
 H         -74.551331     -197.506119      -70.108032
 H         -72.740379     -201.242569      -71.157059
 H         -72.009094     -200.587677      -69.827568
 H         -72.424110     -198.492859      -70.957115
 H         -73.976227     -199.006393      -71.454483
