20
 generated by VMD
 C         -26.517395      -71.898682      -17.501024
 N         -26.741972      -72.724197      -16.722210
 H         -24.233097      -69.431061      -18.774866
 H         -26.395157      -71.053337      -18.303862
 C         -24.628305      -69.748436      -19.798075
 C         -24.044479      -70.915253      -20.375204
 C         -25.760168      -68.975883      -20.471733
 C         -25.110310      -71.732254      -21.140841
 C         -26.776638      -69.779594      -21.239460
 C         -25.999336      -70.864395      -21.953369
 H         -23.600149      -71.528427      -19.601734
 H         -23.279949      -70.745613      -21.099091
 H         -26.229916      -68.224525      -19.822342
 H         -25.311193      -68.288544      -21.262957
 H         -25.727905      -72.245972      -20.390301
 H         -24.643450      -72.477989      -21.755033
 H         -27.287405      -69.040123      -21.879055
 H         -27.553692      -70.084404      -20.463207
 H         -26.701073      -71.408295      -22.521389
 H         -25.411509      -70.333176      -22.696228
