20
 generated by VMD
 C         -30.164312      -92.782036      -25.237717
 N         -30.708305      -93.579918      -25.831118
 H         -32.937176      -91.607933      -26.755667
 H         -29.648405      -91.884560      -24.748262
 C         -33.756294      -91.315559      -27.361727
 C         -34.985825      -92.083122      -27.440378
 C         -33.224369      -90.561783      -28.512980
 C         -35.930958      -91.720100      -28.506845
 C         -34.241749      -90.033318      -29.463184
 C         -35.339100      -91.081589      -29.793440
 H         -35.242577      -92.084267      -26.277176
 H         -34.657906      -93.153786      -27.664448
 H         -32.533092      -89.728516      -28.210522
 H         -32.607342      -91.298378      -28.996635
 H         -36.518440      -90.927383      -28.084028
 H         -36.689762      -92.557724      -28.706663
 H         -33.938023      -89.598976      -30.433510
 H         -34.805264      -89.169357      -28.974825
 H         -36.010647      -90.501305      -30.427755
 H         -34.972534      -91.873795      -30.457487
