20
 generated by VMD
 C         -18.069069      -48.556263       -7.361693
 N         -18.212694      -48.581741       -6.265014
 H         -16.397738      -48.213413      -10.199169
 H         -16.147696      -49.094166      -11.645305
 C         -16.383320      -48.141594      -11.260422
 C         -15.247945      -47.100056      -11.719976
 C         -17.713612      -47.652039      -11.808803
 C         -15.331454      -46.614662      -13.175416
 C         -17.632919      -47.454449      -13.287086
 C         -16.755939      -46.275539      -13.643827
 H         -14.253713      -47.652187      -11.700683
 H         -15.361075      -46.266888      -10.987637
 H         -18.505791      -48.402294      -11.657253
 H         -18.009117      -46.700787      -11.271015
 H         -14.839477      -47.327217      -13.853246
 H         -14.737312      -45.711510      -13.274970
 H         -18.561491      -47.434891      -13.859518
 H         -17.176168      -48.358715      -13.670775
 H         -16.746443      -46.100891      -14.687203
 H         -17.115709      -45.347530      -13.262624
