20
 generated by VMD
 C         -31.588144      -75.712715      -23.840540
 N         -30.993736      -76.171722      -24.691725
 H         -29.504101      -78.538689      -22.167984
 H         -32.043808      -75.262238      -22.849766
 C         -28.530062      -78.173470      -22.017191
 C         -27.563896      -78.268959      -23.139702
 C         -28.050512      -78.116577      -20.666540
 C         -26.377851      -77.480438      -22.932621
 C         -26.780901      -77.290855      -20.538589
 C         -25.759886      -77.676743      -21.575121
 H         -28.023394      -78.129738      -24.028412
 H         -27.211775      -79.246887      -23.115345
 H         -28.821442      -77.669418      -19.959188
 H         -27.764656      -79.098289      -20.231165
 H         -26.703312      -76.425598      -23.014711
 H         -25.714499      -77.557228      -23.821640
 H         -26.372509      -77.397743      -19.552874
 H         -27.044790      -76.259819      -20.822657
 H         -24.896994      -77.066559      -21.562681
 H         -25.398710      -78.705200      -21.370872
