20
 generated by VMD
 C         -49.463623     -141.547211      -45.830036
 N         -49.280308     -141.953903      -44.753235
 H         -51.306885     -138.719116      -46.258789
 H         -49.764702     -141.225235      -46.822273
 C         -52.231403     -139.287933      -46.385593
 C         -52.916199     -139.452972      -47.706596
 C         -52.863544     -140.003372      -45.270943
 C         -53.157207     -140.949570      -48.171059
 C         -53.180046     -141.503021      -45.681576
 C         -53.875961     -141.637497      -47.013927
 H         -52.368813     -138.876434      -48.479675
 H         -53.956314     -139.092834      -47.752941
 H         -52.362202     -139.866791      -44.343880
 H         -53.719601     -139.479935      -45.113701
 H         -52.256626     -141.637085      -48.272449
 H         -53.737564     -140.990936      -49.169750
 H         -53.834263     -141.998367      -44.941887
 H         -52.321026     -142.061844      -45.489765
 H         -53.986599     -142.798218      -47.178738
 H         -54.979389     -141.298981      -46.850208
