20
 generated by VMD
 C         -68.110481     -185.167892      -67.767174
 N         -67.587837     -185.830383      -66.965729
 H         -69.621925     -185.117630      -64.463829
 H         -68.558403     -184.613083      -68.563377
 C         -69.681374     -185.672562      -63.474983
 C         -70.818878     -185.319794      -62.680420
 C         -69.009018     -186.990356      -63.177700
 C         -70.458946     -185.330017      -61.178429
 C         -68.459068     -186.875214      -61.718086
 C         -69.556389     -186.500717      -60.683804
 H         -71.620667     -186.046860      -62.690468
 H         -71.215034     -184.315109      -62.904938
 H         -69.651070     -187.864761      -63.277382
 H         -68.115685     -187.012024      -63.879807
 H         -71.415581     -185.461288      -60.603851
 H         -70.030746     -184.381546      -60.761021
 H         -67.719933     -186.023849      -61.661152
 H         -68.021431     -187.833649      -61.503342
 H         -70.278778     -187.354263      -60.744129
 H         -69.283974     -186.136520      -59.722984
