20
 generated by VMD
 C          -1.872004      -16.781574        2.873093
 N          -2.235397      -15.966791        2.202840
 H          -4.319235      -15.887599       -0.134676
 H          -4.682754      -17.155397       -1.304427
 C          -5.086682      -16.579239       -0.427546
 C          -6.323262      -15.949492       -0.948071
 C          -5.282406      -17.549082        0.723154
 C          -7.460254      -16.881979       -1.220668
 C          -6.431076      -18.604465        0.337898
 C          -7.713252      -17.914261       -0.112502
 H          -6.115472      -15.360221       -1.889395
 H          -6.662323      -15.279830       -0.164902
 H          -4.411721      -18.087597        0.947011
 H          -5.738639      -17.033827        1.505541
 H          -7.236066      -17.449516       -2.140032
 H          -8.393349      -16.339050       -1.329733
 H          -6.608180      -19.246813        1.188826
 H          -5.992612      -19.221241       -0.429644
 H          -8.448436      -18.655602       -0.459830
 H          -8.269653      -17.370657        0.673368
