20
 generated by VMD
 C          -2.300387       -8.649794       -0.825783
 N          -1.646493       -8.270910       -0.009719
 H          -2.965776       -9.552879        2.873449
 H          -1.871668      -10.945508        3.311857
 C          -2.865939      -10.588480        3.181605
 C          -3.513389      -11.470681        2.121978
 C          -3.646047      -10.868558        4.537196
 C          -3.334517      -13.008342        2.506429
 C          -3.576016      -12.295827        5.045566
 C          -3.953199      -13.259953        3.917860
 H          -3.039925      -11.197976        1.201702
 H          -4.596505      -11.248019        2.080248
 H          -3.270625      -10.309638        5.342694
 H          -4.656590      -10.513130        4.487878
 H          -2.289190      -13.211891        2.387189
 H          -3.832236      -13.536435        1.725644
 H          -4.207224      -12.452448        5.950428
 H          -2.546597      -12.607154        5.407990
 H          -3.709008      -14.297075        4.233016
 H          -5.069523      -13.225487        3.823122
