20
 generated by VMD
 C         -38.539917      -99.034813      -27.144966
 N         -37.664062      -98.932449      -26.388466
 H         -37.119331      -97.095360      -29.953321
 H         -39.263512      -99.252640      -27.861538
 C         -36.061241      -96.905357      -30.209188
 C         -35.451717      -97.468628      -31.473890
 C         -35.264355      -95.938904      -29.383036
 C         -34.470734      -96.568657      -32.218029
 C         -33.996105      -95.272194      -30.121115
 C         -33.464188      -95.894470      -31.336412
 H         -36.350967      -97.601311      -32.135437
 H         -34.986641      -98.384415      -31.269991
 H         -35.849945      -95.094910      -28.912556
 H         -35.044453      -96.553505      -28.517984
 H         -35.155743      -95.848198      -32.776150
 H         -33.863930      -97.053307      -33.033596
 H         -33.226105      -95.130646      -29.391117
 H         -34.085949      -94.221413      -30.418795
 H         -32.993690      -95.046730      -31.817055
 H         -32.548576      -96.543953      -31.215303
