20
 generated by VMD
 C         -50.039085     -131.237823      -46.579121
 N         -50.289906     -131.607819      -47.705856
 H         -48.001133     -132.149994      -43.806900
 H         -49.566051     -131.045319      -45.618317
 C         -48.932213     -132.258835      -43.202888
 C         -49.612694     -133.585999      -43.216732
 C         -48.720737     -131.658371      -41.873051
 C         -48.867817     -134.588028      -42.351589
 C         -47.954891     -132.562866      -40.959000
 C         -48.466942     -134.019882      -40.930485
 H         -49.688816     -133.889847      -44.242802
 H         -50.635105     -133.563400      -42.704643
 H         -48.227806     -130.712509      -41.926464
 H         -49.750015     -131.475418      -41.328159
 H         -47.941036     -134.723541      -42.922684
 H         -49.433838     -135.542511      -42.399643
 H         -48.001247     -132.341141      -39.869125
 H         -46.925003     -132.559525      -41.191017
 H         -47.784885     -134.687958      -40.387970
 H         -49.367077     -133.971176      -40.388206
