20
 generated by VMD
 C         -40.052544     -100.855385      -31.814806
 N         -40.962135     -100.501602      -31.213676
 H         -37.559029     -103.665611      -32.344051
 H         -39.175758     -101.021606      -32.387676
 C         -37.103706     -102.872444      -31.813143
 C         -35.991947     -102.339264      -32.778851
 C         -37.060272     -102.401375      -30.439318
 C         -35.357124     -100.968895      -32.485867
 C         -36.645046     -100.983528      -30.361694
 C         -35.286037     -100.582474      -31.045637
 H         -36.349453     -102.315903      -33.850796
 H         -35.176254     -103.087074      -32.630207
 H         -38.050461     -102.393402      -30.009655
 H         -36.426273     -103.093353      -29.761456
 H         -35.874790     -100.121063      -32.888065
 H         -34.289566     -100.935303      -32.874100
 H         -36.507935     -100.673248      -29.289883
 H         -37.383018     -100.405266      -30.784454
 H         -35.263203      -99.504517      -31.027147
 H         -34.356602     -101.012901      -30.623907
