20
 generated by VMD
 C         -49.280270     -141.027664      -45.607285
 N         -48.363346     -141.378845      -44.998978
 H         -51.322289     -138.618439      -46.128170
 H         -50.156471     -140.689941      -46.113827
 C         -52.055359     -139.338730      -46.342041
 C         -52.587723     -139.350632      -47.698078
 C         -52.908287     -139.910995      -45.095249
 C         -53.405075     -140.707428      -47.977585
 C         -53.385838     -141.312531      -45.526463
 C         -54.210899     -141.316116      -46.790291
 H         -51.802380     -139.492218      -48.451344
 H         -53.098877     -138.375473      -47.888641
 H         -52.255520     -139.920029      -44.175003
 H         -53.733543     -139.114700      -44.968555
 H         -52.617447     -141.299301      -48.246853
 H         -54.101307     -140.788284      -48.797806
 H         -54.004402     -141.697525      -44.604717
 H         -52.528061     -141.985260      -45.802391
 H         -54.333973     -142.424942      -46.981976
 H         -55.186752     -140.847305      -46.834629
