20
 generated by VMD
 C         -20.077246      -57.336185      -16.779535
 N         -19.193851      -57.499065      -17.459784
 H         -22.483120      -59.512051      -17.248598
 H         -21.131659      -57.041447      -16.347174
 C         -22.507860      -60.500137      -16.649824
 C         -23.847530      -61.095734      -16.406158
 C         -21.199472      -60.786972      -15.955013
 C         -23.765572      -62.120918      -15.217376
 C         -21.291920      -62.249733      -15.521931
 C         -22.458437      -62.507416      -14.540833
 H         -24.226711      -61.527771      -17.365456
 H         -24.486788      -60.269573      -16.041918
 H         -20.382273      -60.712227      -16.732565
 H         -20.992352      -60.007679      -15.226571
 H         -24.278303      -63.066853      -15.557117
 H         -24.567919      -61.880238      -14.428373
 H         -20.306263      -62.376091      -14.980562
 H         -21.356024      -62.928226      -16.384125
 H         -22.412586      -63.598846      -14.268776
 H         -22.144861      -62.022152      -13.623811
