20
 generated by VMD
 C         -61.013618     -155.535507      -54.888824
 N         -60.994858     -156.258255      -53.928249
 H         -59.092308     -155.197800      -51.934448
 H         -60.919567     -154.818405      -55.725384
 C         -58.063499     -155.320038      -51.586720
 C         -57.589874     -154.476746      -50.346924
 C         -57.128258     -155.908295      -52.565990
 C         -56.229465     -155.160995      -49.709457
 C         -55.988232     -156.556580      -51.881046
 C         -55.269001     -155.626419      -50.838520
 H         -58.443207     -154.437393      -49.666279
 H         -57.176605     -153.474197      -50.672539
 H         -57.774708     -156.485535      -53.176411
 H         -56.595993     -155.081635      -53.146805
 H         -56.561230     -156.019928      -49.118664
 H         -55.657574     -154.616257      -49.050396
 H         -55.308594     -156.946213      -52.589298
 H         -56.355019     -157.445068      -51.320042
 H         -54.441135     -156.251724      -50.447815
 H         -54.806004     -154.763214      -51.319500
