20
 generated by VMD
 C         -30.166452      -92.753235      -25.810854
 N         -31.342690      -92.863159      -25.629894
 H         -32.846104      -90.897934      -26.274136
 H         -29.175184      -92.520462      -25.944864
 C         -33.492947      -90.908279      -27.173395
 C         -34.417347      -92.140854      -27.398203
 C         -33.117126      -90.252449      -28.424175
 C         -35.590008      -91.716049      -28.213329
 C         -34.361801      -89.957764      -29.395365
 C         -35.345757      -91.029739      -29.518473
 H         -34.763107      -92.535919      -26.289059
 H         -33.692612      -92.960281      -27.783453
 H         -32.581341      -89.298546      -28.215778
 H         -32.399323      -90.857841      -29.006250
 H         -36.176086      -91.020866      -27.688078
 H         -36.304531      -92.551178      -28.477211
 H         -33.803566      -89.677353      -30.296839
 H         -34.735901      -88.957649      -29.112587
 H         -36.305538      -90.685242      -29.944036
 H         -34.938137      -91.664642      -30.323895
