20
 generated by VMD
 C         -48.537361     -135.784775      -46.211063
 N         -47.701515     -136.152817      -45.416458
 H         -51.480377     -135.147018      -46.150436
 H         -49.284367     -135.453110      -46.974056
 C         -51.676231     -135.834930      -45.346149
 C         -52.494225     -137.164230      -45.605156
 C         -51.235981     -135.711670      -43.968525
 C         -51.619007     -138.319305      -45.175129
 C         -50.503056     -136.992172      -43.499115
 C         -51.233612     -138.303406      -43.686775
 H         -52.843895     -137.215958      -46.699768
 H         -53.328194     -137.169388      -44.949131
 H         -50.585266     -134.832245      -43.967445
 H         -52.193302     -135.501755      -43.458874
 H         -50.674576     -138.395706      -45.762924
 H         -52.005627     -139.347626      -45.329041
 H         -50.144398     -136.770905      -42.425705
 H         -49.592583     -137.100357      -44.020752
 H         -50.727386     -139.283066      -43.347149
 H         -52.210300     -138.344666      -43.027275
