20
 generated by VMD
 C         -29.173985      -81.185486      -27.425442
 N         -29.934439      -80.323250      -27.631830
 H         -28.341482      -82.527832      -24.071587
 H         -28.463392      -81.947273      -27.373676
 C         -29.269911      -83.123970      -23.841591
 C         -29.621889      -83.441406      -22.413012
 C         -29.945072      -83.820602      -24.961403
 C         -31.145514      -83.745392      -22.188431
 C         -31.481932      -83.997719      -24.739452
 C         -31.880018      -84.480377      -23.369181
 H         -29.350069      -82.627457      -21.656921
 H         -29.065718      -84.296509      -22.034035
 H         -29.778118      -83.317291      -25.939165
 H         -29.418497      -84.725975      -25.022257
 H         -31.761278      -82.972198      -21.872641
 H         -31.341988      -84.398170      -21.223995
 H         -31.767252      -84.767036      -25.516241
 H         -31.905035      -83.062294      -25.022194
 H         -32.969906      -84.338860      -23.273682
 H         -31.640654      -85.525711      -23.368029
