20
 generated by VMD
 C         -53.089649     -147.393372      -45.549679
 N         -54.241703     -147.445633      -45.264801
 H         -54.449940     -147.626373      -48.080032
 H         -52.044945     -147.410812      -45.762264
 C         -54.417839     -146.679672      -48.584030
 C         -53.249058     -146.525055      -49.519157
 C         -55.055958     -145.418930      -48.029419
 C         -53.427761     -145.297211      -50.379517
 C         -55.193089     -144.224915      -48.984749
 C         -53.862652     -143.991028      -49.668224
 H         -53.166126     -147.459457      -50.173161
 H         -52.345257     -146.522232      -48.892887
 H         -56.033272     -145.874481      -47.816532
 H         -54.784046     -145.126038      -47.061436
 H         -54.214447     -145.489410      -51.025818
 H         -52.471550     -145.195114      -50.878082
 H         -55.406174     -143.282639      -48.398308
 H         -56.052357     -144.419708      -49.741932
 H         -53.996853     -143.347275      -50.586788
 H         -53.065125     -143.449158      -49.115810
