20
 generated by VMD
 C         -67.758263     -185.826782      -67.159660
 N         -68.747139     -185.885696      -67.767578
 H         -68.648521     -188.340622      -64.614952
 H         -66.845985     -185.777603      -66.671082
 C         -69.239204     -187.858704      -63.808464
 C         -68.962959     -186.625595      -63.012978
 C         -70.609367     -188.308029      -63.780037
 C         -69.396286     -186.804337      -61.572990
 C         -71.384033     -188.293503      -62.435474
 C         -71.000015     -187.144547      -61.505928
 H         -69.521576     -185.757370      -63.460743
 H         -67.899437     -186.321808      -63.122208
 H         -71.145454     -187.753738      -64.558647
 H         -70.729042     -189.267792      -64.277328
 H         -69.135696     -185.811432      -61.124584
 H         -68.962990     -187.622574      -61.059357
 H         -71.129662     -189.224380      -61.801609
 H         -72.470413     -188.487991      -62.683880
 H         -71.619781     -186.258743      -61.663986
 H         -71.263252     -187.346191      -60.462536
