20
 generated by VMD
 C         -68.148064     -189.554276      -67.113831
 N         -67.078728     -189.110718      -67.171959
 H         -68.571358     -188.649719      -63.344414
 H         -69.182968     -189.883698      -67.121628
 C         -69.644562     -188.669952      -63.576149
 C         -70.437393     -189.932983      -63.684231
 C         -70.466850     -187.418671      -63.096340
 C         -71.872551     -189.754547      -64.288033
 C         -71.862350     -187.378860      -63.593906
 C         -72.618706     -188.670700      -63.594265
 H         -70.440201     -190.305511      -62.570610
 H         -69.951530     -190.690308      -64.366043
 H         -70.508453     -187.490662      -61.986500
 H         -69.893478     -186.544479      -63.309864
 H         -72.455612     -190.627899      -64.325394
 H         -71.795097     -189.421555      -65.359184
 H         -71.840340     -187.072525      -64.693069
 H         -72.316162     -186.493057      -63.133625
 H         -72.926117     -189.003937      -62.483341
 H         -73.529259     -188.645233      -64.137695
