20
 generated by VMD
 C         -49.339542     -132.581833      -46.900089
 N         -50.169796     -131.898300      -47.127140
 H         -47.626080     -134.216064      -44.199871
 H         -48.636654     -133.386032      -46.948299
 C         -48.485199     -134.537430      -43.634659
 C         -49.084648     -135.892792      -43.829659
 C         -49.341442     -133.484726      -43.079052
 C         -49.946220     -136.336502      -42.662682
 C         -50.161232     -133.949448      -41.901112
 C         -50.902889     -135.275238      -42.203037
 H         -48.299049     -136.675629      -44.082745
 H         -49.718628     -135.822327      -44.666656
 H         -48.671455     -132.755249      -42.589008
 H         -49.838707     -133.039581      -43.879627
 H         -49.187840     -136.661896      -41.938042
 H         -50.440334     -137.198486      -43.107182
 H         -50.727371     -133.109207      -41.462658
 H         -49.433197     -134.333023      -41.064899
 H         -51.585152     -135.856934      -41.473259
 H         -51.627369     -135.222916      -43.027061
