20
 generated by VMD
 C         -28.398998      -74.026352      -18.360342
 N         -29.182220      -73.357498      -17.827433
 H         -25.019648      -71.931274      -18.759520
 H         -27.886866      -74.548492      -19.166849
 C         -25.350527      -71.926193      -19.778439
 C         -24.726078      -73.141861      -20.636473
 C         -25.722607      -70.644737      -20.596931
 C         -25.254110      -73.258514      -22.095779
 C         -26.394304      -70.975410      -21.862232
 C         -25.441849      -71.788910      -22.741741
 H         -24.847939      -73.992371      -20.048540
 H         -23.672649      -72.980049      -20.635250
 H         -26.363634      -69.986206      -19.994625
 H         -24.780214      -70.160278      -20.764612
 H         -26.269615      -73.585266      -22.081499
 H         -24.756166      -73.899834      -22.807745
 H         -26.664413      -70.010323      -22.311455
 H         -27.238508      -71.723854      -21.769087
 H         -25.807505      -71.870010      -23.781233
 H         -24.581743      -71.192291      -22.868652
