20
 generated by VMD
 C         -49.135563     -133.068527      -47.126728
 N         -48.222961     -133.137589      -47.867542
 H         -48.425026     -134.697479      -43.833485
 H         -49.832195     -132.883255      -46.288643
 C         -49.516777     -134.911407      -43.866016
 C         -49.790833     -136.241837      -44.421398
 C         -50.524170     -134.249313      -43.008179
 C         -50.235435     -137.176376      -43.231098
 C         -50.947132     -135.189392      -41.885685
 C         -51.415318     -136.548004      -42.539753
 H         -48.928127     -136.713974      -44.824234
 H         -50.603844     -136.227005      -45.250008
 H         -50.110638     -133.326736      -42.515228
 H         -51.457050     -133.901489      -43.545383
 H         -49.553173     -137.274017      -42.414223
 H         -50.399063     -138.228973      -43.559059
 H         -51.781906     -134.729279      -41.434399
 H         -50.190239     -135.218262      -41.128185
 H         -51.689560     -137.089798      -41.644642
 H         -52.269516     -136.390671      -43.099209
