20
 generated by VMD
 C         -60.803513     -156.021301      -54.360161
 N         -60.822987     -156.220505      -55.463448
 H         -59.289185     -156.051529      -50.967052
 H         -60.862522     -155.728577      -53.333054
 C         -58.335602     -155.751953      -51.383190
 C         -57.570251     -154.717194      -50.650726
 C         -57.626450     -156.522888      -52.391399
 C         -56.254372     -155.343277      -50.005230
 C         -56.469749     -157.134552      -51.699791
 C         -55.533066     -156.182816      -51.045139
 H         -58.296215     -154.319885      -49.918213
 H         -57.217560     -153.881042      -51.325417
 H         -58.361908     -157.159241      -52.787174
 H         -57.220139     -155.900818      -53.113205
 H         -56.517086     -155.798935      -49.106358
 H         -55.493629     -154.633621      -49.723690
 H         -55.909607     -157.750366      -52.429836
 H         -56.868717     -157.912170      -51.043362
 H         -54.771400     -156.737488      -50.593674
 H         -54.991497     -155.439697      -51.739231
