20
 generated by VMD
 C         -67.298653     -177.778900      -57.417374
 N         -67.599159     -178.743332      -56.829102
 H         -64.269897     -176.130524      -58.988544
 H         -66.967529     -176.842560      -57.827343
 C         -64.408783     -175.266449      -59.651268
 C         -65.618141     -174.463623      -59.493336
 C         -63.142250     -174.758896      -60.459805
 C         -65.339272     -173.011307      -59.467148
 C         -62.941593     -173.279724      -60.213680
 C         -64.221176     -172.515594      -60.392059
 H         -66.136185     -174.760941      -58.639004
 H         -66.290359     -174.700851      -60.377869
 H         -62.412842     -175.400513      -60.042225
 H         -63.370094     -175.031265      -61.495491
 H         -65.126518     -172.738998      -58.412903
 H         -66.307259     -172.523483      -59.752193
 H         -62.303654     -172.721420      -60.989830
 H         -62.500572     -173.137497      -59.272308
 H         -64.349350     -171.430267      -60.414436
 H         -64.563461     -172.919144      -61.395508
