20
 generated by VMD
 C         -38.762020      -98.757217      -27.741377
 N         -38.454506      -99.831406      -27.463516
 H         -37.341644      -97.302177      -31.165817
 H         -39.021561      -97.652557      -27.850100
 C         -36.385189      -97.698219      -30.870310
 C         -35.627773      -98.236778      -31.974279
 C         -35.729076      -97.289398      -29.554716
 C         -34.415569      -97.279709      -32.266457
 C         -34.475761      -96.505875      -29.958208
 C         -33.569099      -96.944061      -30.996532
 H         -36.080036      -98.332069      -32.942574
 H         -35.279915      -99.267815      -31.734629
 H         -36.377903      -96.642181      -28.965626
 H         -35.468784      -98.220367      -28.931135
 H         -34.778625      -96.332428      -32.775185
 H         -33.789700      -97.835602      -32.912777
 H         -33.898609      -96.288086      -29.053139
 H         -34.912731      -95.480507      -30.347363
 H         -32.713634      -96.153297      -31.023296
 H         -33.060802      -97.827927      -30.722683
