20
 generated by VMD
 C          -5.358056      -21.176371        1.602771
 N          -5.509736      -20.803158        2.645793
 H          -4.892547      -18.859224       -0.614541
 H          -5.853381      -20.293888       -0.134529
 C          -5.789552      -19.436373       -0.887080
 C          -5.529839      -20.043066       -2.299808
 C          -7.169952      -18.743582       -0.860496
 C          -6.646829      -21.096426       -2.666076
 C          -8.244921      -19.781179       -1.159711
 C          -8.033175      -20.501818       -2.473222
 H          -4.541508      -20.534424       -2.432412
 H          -5.478383      -19.265324       -3.074583
 H          -7.280967      -18.336163        0.150141
 H          -7.118502      -17.808933       -1.505002
 H          -6.429004      -21.967659       -2.047354
 H          -6.585852      -21.418297       -3.666709
 H          -9.196922      -19.288103       -1.182284
 H          -8.268013      -20.577715       -0.387252
 H          -8.883861      -21.226244       -2.599822
 H          -8.213904      -19.828157       -3.342176
