20
 generated by VMD
 C         -41.694759     -102.287254      -34.072491
 N         -40.877151     -101.829880      -34.737232
 H         -39.472000     -103.954895      -32.424801
 H         -42.554600     -102.595024      -33.447350
 C         -38.450867     -104.044418      -32.129642
 C         -37.351299     -103.619904      -32.985310
 C         -38.118965     -104.897820      -31.011471
 C         -35.920895     -103.379433      -32.317730
 C         -36.909142     -104.363716      -30.224531
 C         -35.632645     -104.268250      -31.158915
 H         -37.756729     -102.712082      -33.442039
 H         -37.000732     -104.342041      -33.709705
 H         -38.902153     -105.076897      -30.353638
 H         -37.811039     -105.872963      -31.492401
 H         -36.114033     -102.367874      -32.045807
 H         -35.123707     -103.312317      -33.062321
 H         -36.770851     -105.009514      -29.384031
 H         -37.113918     -103.356316      -29.806499
 H         -34.829090     -103.842339      -30.606190
 H         -35.253723     -105.230553      -31.527931
