20
 generated by VMD
 C         -25.287029      -71.099045      -17.035309
 N         -25.310133      -70.991081      -15.861290
 H         -23.947577      -68.638725      -18.657276
 H         -25.281084      -71.111877      -18.091303
 C         -24.586842      -69.020882      -19.442417
 C         -23.907778      -69.796326      -20.577148
 C         -25.840467      -68.205032      -19.735422
 C         -24.812817      -70.656517      -21.331558
 C         -26.787235      -69.225403      -20.555635
 C         -26.150808      -69.948433      -21.731396
 H         -23.126633      -70.251831      -20.052473
 H         -23.334360      -69.201668      -21.201445
 H         -26.439167      -67.987602      -18.860689
 H         -25.505871      -67.400742      -20.465958
 H         -25.001436      -71.625526      -20.815233
 H         -24.273123      -70.996193      -22.212713
 H         -27.689068      -68.732071      -20.962658
 H         -27.141428      -70.033600      -19.879196
 H         -26.753914      -70.810936      -22.168659
 H         -25.895344      -69.185486      -22.553907
