20
 generated by VMD
 C         -22.860430      -52.424053      -12.033260
 N         -23.120598      -52.497711      -10.962473
 H         -20.074715      -52.888844      -14.131942
 H         -22.225183      -52.186794      -13.015128
 C         -18.954687      -52.804836      -13.858323
 C         -18.092537      -52.016045      -14.748235
 C         -18.260704      -53.852257      -13.041010
 C         -16.619284      -52.252178      -14.545571
 C         -17.007128      -53.236763      -12.259160
 C         -16.163067      -52.260284      -13.067646
 H         -18.401899      -50.936325      -14.560900
 H         -18.295479      -52.302269      -15.793538
 H         -18.944487      -54.233475      -12.321847
 H         -17.984381      -54.691753      -13.698516
 H         -16.024734      -51.563286      -15.120749
 H         -16.328239      -53.259510      -14.810464
 H         -16.243938      -54.080811      -12.104834
 H         -17.383215      -52.827011      -11.360678
 H         -16.175766      -51.257877      -12.563568
 H         -15.104954      -52.609554      -13.026379
