20
 generated by VMD
 C         -26.793299      -71.739586      -17.578678
 N         -26.813770      -72.786858      -17.065268
 H         -24.466526      -69.956459      -18.592207
 H         -26.948769      -70.741325      -18.042480
 C         -24.905756      -70.239685      -19.559011
 C         -24.095039      -71.192131      -20.405939
 C         -25.713091      -69.172684      -20.350098
 C         -25.018902      -71.898270      -21.314411
 C         -26.733612      -69.904305      -21.267769
 C         -26.031126      -71.004105      -22.167212
 H         -23.646242      -71.723495      -19.661943
 H         -23.299686      -70.648537      -20.915071
 H         -26.288282      -68.545654      -19.597612
 H         -25.041534      -68.589256      -20.986469
 H         -25.693485      -72.531021      -20.819025
 H         -24.393106      -72.539253      -21.962803
 H         -27.266802      -69.225456      -22.012648
 H         -27.533497      -70.533745      -20.670610
 H         -26.762178      -71.744057      -22.415054
 H         -25.524961      -70.734993      -23.074104
