20
 generated by VMD
 C         -47.950287     -125.099670      -38.916565
 N         -47.326649     -126.057632      -38.602097
 H         -45.745144     -123.288795      -37.854847
 H         -48.416985     -124.179192      -39.111195
 C         -45.357574     -123.085152      -38.903419
 C         -44.262272     -123.972237      -39.303078
 C         -45.567165     -121.893806      -39.665100
 C         -44.522449     -124.337578      -40.828747
 C         -45.889271     -122.261009      -41.171318
 C         -44.837791     -123.163895      -41.715477
 H         -44.254875     -124.899956      -38.640266
 H         -43.225338     -123.557060      -39.274448
 H         -46.443619     -121.399994      -39.185299
 H         -44.698837     -121.147789      -39.689178
 H         -45.058521     -125.237038      -41.047428
 H         -43.587391     -124.683586      -41.324127
 H         -46.060963     -121.505638      -41.867237
 H         -46.843624     -122.689873      -41.194324
 H         -45.245800     -123.561424      -42.708466
 H         -43.912121     -122.631485      -42.012840
