20
 generated by VMD
 C         -68.546539     -185.412323      -67.121109
 N         -67.727974     -184.591476      -67.138725
 H         -69.084763     -188.312439      -64.739777
 H         -69.433861     -186.071335      -67.092453
 C         -69.317093     -187.982178      -63.727421
 C         -69.396011     -186.513641      -63.746696
 C         -70.320885     -188.649689      -62.836666
 C         -69.520340     -185.849075      -62.367653
 C         -70.479927     -188.077148      -61.438953
 C         -70.529877     -186.468201      -61.437252
 H         -70.267883     -186.176956      -64.406197
 H         -68.444931     -186.086411      -64.186287
 H         -71.295670     -188.474030      -63.379246
 H         -70.111977     -189.807800      -62.811085
 H         -69.550438     -184.780045      -62.353691
 H         -68.484138     -186.073196      -61.937862
 H         -69.635185     -188.453278      -60.798573
 H         -71.452515     -188.378357      -60.987614
 H         -71.494209     -186.094116      -61.732849
 H         -70.611069     -186.294205      -60.454624
