20
 generated by VMD
 C          -1.183117      -13.169785        0.967407
 N          -0.499123      -13.002999        0.132348
 H          -4.345455      -13.162406        1.779333
 H          -5.815191      -13.316555        0.628296
 C          -5.169987      -13.800728        1.365067
 C          -5.928806      -14.276765        2.620457
 C          -4.367829      -15.032131        0.753836
 C          -6.917450      -15.395212        2.215549
 C          -5.242029      -16.162844        0.423572
 C          -6.114336      -16.527449        1.591126
 H          -6.325081      -13.412804        3.145706
 H          -5.204157      -14.663947        3.295582
 H          -3.933407      -14.646882       -0.147579
 H          -3.542883      -15.205318        1.452369
 H          -7.608662      -14.950180        1.498517
 H          -7.512733      -15.702203        3.083411
 H          -4.629431      -16.990553        0.063389
 H          -5.895689      -15.903328       -0.441310
 H          -6.716543      -17.339680        1.281036
 H          -5.390193      -16.874504        2.290343
