20
 generated by VMD
 C         -69.268265     -180.317688      -60.484341
 N         -69.355530     -181.486343      -60.401722
 H         -67.401466     -177.387146      -59.604877
 H         -69.092514     -179.236954      -60.705875
 C         -66.313622     -177.303055      -59.906578
 C         -65.992363     -177.376007      -61.312016
 C         -65.234253     -177.135773      -58.881329
 C         -64.909515     -176.234314      -61.715855
 C         -64.267273     -175.943665      -59.120155
 C         -63.795235     -176.200439      -60.587067
 H         -66.843246     -177.318726      -61.999180
 H         -65.600204     -178.390594      -61.640430
 H         -65.762863     -177.071472      -57.985489
 H         -64.720558     -178.148926      -58.934052
 H         -65.409973     -175.270813      -61.755146
 H         -64.588409     -176.648392      -62.701218
 H         -63.543484     -176.040649      -58.310139
 H         -64.837906     -175.047180      -59.183804
 H         -63.230358     -175.354004      -60.856670
 H         -63.048607     -177.029404      -60.687160
