20
 generated by VMD
 C         -12.088014      -37.538002       -7.687373
 N         -11.000532      -37.747093       -7.399259
 H         -12.420994      -41.304749       -8.589684
 H         -13.375487      -40.520840       -7.404151
 C         -13.470622      -41.063778       -8.359705
 C         -14.413632      -42.309055       -8.142652
 C         -14.077968      -40.159069       -9.485547
 C         -15.858803      -41.950729       -7.802135
 C         -15.542753      -39.781380       -9.192840
 C         -16.416288      -41.060566       -8.927759
 H         -13.979573      -42.950050       -7.377251
 H         -14.410644      -42.947475       -9.070908
 H         -13.458860      -39.295277       -9.603101
 H         -13.927543      -40.707043      -10.430438
 H         -15.862238      -41.423038       -6.856612
 H         -16.477097      -42.860207       -7.674087
 H         -15.950698      -39.219887      -10.009100
 H         -15.575874      -39.128304       -8.251592
 H         -17.429955      -40.757553       -8.753657
 H         -16.384686      -41.688568       -9.834560
