20
 generated by VMD
 C         -67.361717     -177.787918      -57.451519
 N         -67.544830     -178.756500      -56.851795
 H         -64.301445     -176.324570      -59.183758
 H         -67.188713     -176.921951      -58.036049
 C         -64.383743     -175.345322      -59.720512
 C         -65.640495     -174.496918      -59.543346
 C         -63.200508     -174.822617      -60.339073
 C         -65.329285     -172.943695      -59.436600
 C         -62.975315     -173.309204      -60.164474
 C         -64.302155     -172.573120      -60.467659
 H         -66.149742     -174.779770      -58.658543
 H         -66.306610     -174.653046      -60.425732
 H         -62.248405     -175.205017      -60.049541
 H         -63.166279     -174.982727      -61.389530
 H         -64.834755     -172.763229      -58.441036
 H         -66.233017     -172.299133      -59.546852
 H         -62.124931     -173.116501      -60.954037
 H         -62.547428     -173.077011      -59.219990
 H         -63.920132     -171.578415      -60.589149
 H         -64.715683     -172.786179      -61.503502
