20
 generated by VMD
 C         -47.915306     -134.979309      -46.286751
 N         -47.765446     -134.722610      -47.454037
 H         -51.116402     -134.571243      -45.287754
 H         -47.944386     -135.141617      -45.170876
 C         -51.030956     -135.520050      -44.807926
 C         -51.563679     -136.701416      -45.358791
 C         -51.205399     -135.346939      -43.269165
 C         -51.217934     -137.998016      -44.499687
 C         -50.898304     -136.611160      -42.539848
 C         -51.639034     -137.797318      -43.096115
 H         -51.239799     -136.905518      -46.423000
 H         -52.620262     -136.618835      -45.393864
 H         -50.452873     -134.640961      -42.895493
 H         -52.150936     -135.043045      -42.975330
 H         -50.141300     -138.139053      -44.513851
 H         -51.680180     -138.803314      -45.157570
 H         -51.040066     -136.532822      -41.392159
 H         -49.780838     -136.753647      -42.708496
 H         -51.445255     -138.594925      -42.545326
 H         -52.727432     -137.779510      -43.019165
