20
 generated by VMD
 C         -70.813835     -181.602127      -64.226097
 N         -70.200256     -182.376892      -63.632137
 H         -68.585335     -181.134552      -61.207462
 H         -71.391632     -180.823242      -64.705307
 C         -67.580849     -180.736938      -60.838482
 C         -66.550240     -181.830734      -60.574505
 C         -67.303383     -179.359848      -60.376484
 C         -65.082161     -181.272781      -60.807159
 C         -65.873398     -178.892166      -60.919998
 C         -64.818672     -179.806549      -60.315250
 H         -66.674751     -182.651855      -61.264637
 H         -66.507225     -182.135178      -59.514526
 H         -68.180283     -178.764755      -60.737045
 H         -67.309563     -179.291870      -59.173424
 H         -64.654137     -181.512985      -61.821037
 H         -64.337784     -181.747421      -60.154934
 H         -65.718460     -177.832443      -60.716606
 H         -65.742401     -178.927658      -62.035721
 H         -63.882454     -179.454956      -60.535664
 H         -64.961151     -179.871460      -59.212608
