20
 generated by VMD
 C         -67.934341     -185.812637      -67.392593
 N         -68.716278     -186.662720      -67.661232
 H         -68.729012     -187.287521      -64.769264
 H         -67.216812     -185.058334      -67.303703
 C         -69.290367     -187.579819      -63.871761
 C         -68.705437     -187.101990      -62.636398
 C         -70.717804     -187.949753      -64.077736
 C         -69.647842     -187.144012      -61.401489
 C         -71.419762     -188.431183      -62.809364
 C         -71.185501     -187.361862      -61.688942
 H         -68.647987     -186.036331      -62.821152
 H         -67.799545     -187.627106      -62.391899
 H         -71.289108     -187.076187      -64.465279
 H         -70.613220     -188.843613      -64.828613
 H         -69.329239     -186.281219      -60.779762
 H         -69.321823     -187.997192      -60.747437
 H         -70.998306     -189.274551      -62.381134
 H         -72.430550     -188.580902      -63.061062
 H         -71.564507     -186.278015      -61.829575
 H         -71.782043     -187.796249      -60.897770
