20
 generated by VMD
 C         -20.959871      -52.287682       -9.619930
 N         -21.286680      -52.270382      -10.699616
 H         -19.421848      -49.877510      -11.992142
 H         -20.279379      -52.207386       -8.512313
 C         -18.334578      -49.955132      -12.138644
 C         -17.789539      -51.304070      -12.500435
 C         -17.238909      -48.939266      -12.196210
 C         -16.750160      -51.327808      -13.731301
 C         -16.580433      -48.823044      -13.560759
 C         -15.829955      -50.088699      -13.821851
 H         -18.677807      -51.840305      -12.808451
 H         -17.310930      -51.788967      -11.607976
 H         -17.617640      -47.924213      -11.998861
 H         -16.482559      -49.145088      -11.477808
 H         -17.350649      -51.524883      -14.607265
 H         -16.142481      -52.239582      -13.696411
 H         -16.032673      -47.806633      -13.617064
 H         -17.313660      -48.730156      -14.326477
 H         -15.439892      -50.154877      -14.843917
 H         -14.995121      -50.202682      -13.131753
