20
 generated by VMD
 C         -68.528236     -185.660843      -66.120163
 N         -68.993172     -186.060196      -67.117607
 H         -69.273224     -183.199646      -63.686905
 H         -68.032745     -185.246414      -65.222061
 C         -69.232788     -183.843994      -62.892303
 C         -70.390388     -184.731110      -62.530708
 C         -67.896950     -183.736176      -62.182388
 C         -69.949425     -185.871399      -61.528839
 C         -67.807526     -184.842758      -61.192543
 C         -68.476562     -186.139954      -61.520584
 H         -70.727562     -185.161484      -63.455177
 H         -71.176643     -184.067398      -62.157986
 H         -67.026871     -183.756790      -62.778130
 H         -67.879364     -182.819244      -61.576092
 H         -70.544136     -186.654099      -62.004890
 H         -70.279480     -185.726532      -60.463505
 H         -68.060623     -184.513382      -60.095512
 H         -66.717003     -184.933868      -61.046444
 H         -68.157501     -186.351700      -62.473251
 H         -68.246490     -186.903839      -60.756298
