20
 generated by VMD
 C          -7.659043      -23.556940        2.002367
 N          -7.608899      -23.135857        3.044580
 H          -9.077600      -23.495316       -1.691279
 H          -9.565434      -22.476564       -2.947990
 C          -8.647439      -22.833370       -2.481048
 C          -7.754564      -23.654732       -3.328960
 C          -7.812736      -21.815086       -1.742163
 C          -6.945243      -22.832815       -4.280048
 C          -7.031735      -20.874495       -2.680940
 C          -6.134718      -21.695908       -3.596434
 H          -8.446527      -24.274096       -3.818950
 H          -7.036278      -24.341509       -2.756475
 H          -8.420205      -21.153215       -1.143298
 H          -7.164603      -22.342953       -1.008581
 H          -7.608525      -22.274525       -4.928888
 H          -6.236383      -23.517845       -4.754755
 H          -6.407571      -20.247629       -2.043008
 H          -7.772651      -20.256695       -3.206653
 H          -5.642759      -21.122522       -4.411891
 H          -5.275480      -22.183456       -3.035430
