20
 generated by VMD
 C         -16.300875      -47.644463       -7.163435
 N         -16.072441      -46.562439       -7.080365
 H         -16.811510      -48.243916      -10.204693
 H         -15.404747      -47.877769      -11.267099
 C         -16.453594      -47.570904      -11.011683
 C         -16.365772      -46.166294      -10.489818
 C         -17.392139      -47.740582      -12.236464
 C         -15.944285      -45.207645      -11.584571
 C         -16.993296      -46.802666      -13.397445
 C         -16.849527      -45.381214      -12.842107
 H         -15.590363      -46.142918       -9.709250
 H         -17.283619      -45.830772      -10.068571
 H         -17.460094      -48.781967      -12.551625
 H         -18.398468      -47.428528      -11.877161
 H         -14.873051      -45.325401      -11.841226
 H         -16.007341      -44.188965      -11.187695
 H         -17.552040      -46.783134      -14.275549
 H         -16.015480      -47.237453      -13.715482
 H         -16.484077      -44.711517      -13.646146
 H         -17.796345      -44.886139      -12.649799
