20
 generated by VMD
 C         -12.582893      -30.256119       -8.085143
 N         -13.180803      -30.491526       -7.176227
 H         -11.249523      -30.321547       -5.255802
 H         -10.609705      -30.811312       -3.675847
 C         -10.887601      -31.177912       -4.693782
 C          -9.550546      -31.707190       -5.364657
 C         -11.943549      -32.346676       -4.572054
 C          -9.085736      -32.972412       -4.690191
 C         -11.429774      -33.584717       -3.820542
 C         -10.099051      -34.031319       -4.498531
 H          -8.733213      -30.939451       -5.227603
 H          -9.665686      -31.977171       -6.383123
 H         -12.805072      -31.921331       -4.016767
 H         -12.292516      -32.712357       -5.559908
 H          -8.647778      -32.668247       -3.699064
 H          -8.245584      -33.417000       -5.307985
 H         -12.193529      -34.301846       -3.850126
 H         -11.191930      -33.271275       -2.761626
 H          -9.611585      -34.734913       -3.816803
 H         -10.305121      -34.550995       -5.510427
