20
 generated by VMD
 C         -68.255051     -185.203384      -67.531181
 N         -67.606300     -185.954498      -66.940964
 H         -69.773720     -185.202118      -64.525246
 H         -68.855125     -184.392410      -68.025589
 C         -69.695351     -185.504822      -63.492836
 C         -70.791077     -185.157028      -62.583549
 C         -68.791069     -186.710419      -63.206486
 C         -70.410255     -185.398376      -61.126797
 C         -68.343040     -186.545883      -61.693386
 C         -69.629982     -186.637421      -60.825386
 H         -71.570160     -185.765045      -62.999691
 H         -71.055725     -184.107712      -62.846203
 H         -69.253548     -187.619629      -63.503616
 H         -67.782188     -186.664017      -63.741520
 H         -71.385086     -185.557526      -60.615040
 H         -69.934441     -184.424835      -60.797314
 H         -67.797195     -185.560532      -61.567863
 H         -67.569168     -187.250259      -61.417488
 H         -70.085480     -187.611832      -60.977848
 H         -69.410599     -186.863098      -59.809555
