20
 generated by VMD
 C          -1.955255      -14.071071        2.148744
 N          -1.678587      -15.105452        1.846856
 H          -3.744406      -16.616985        0.711989
 H          -4.474042      -17.155880       -0.835693
 C          -4.701289      -16.865355        0.188207
 C          -5.653949      -15.694874        0.167709
 C          -5.391368      -18.052584        0.867697
 C          -6.994566      -15.953661       -0.485860
 C          -6.719599      -18.431486        0.162538
 C          -7.645700      -17.230856        0.078468
 H          -5.158320      -14.900891       -0.344082
 H          -5.753386      -15.337870        1.230547
 H          -4.703642      -18.894878        1.019432
 H          -5.694193      -17.723671        1.898573
 H          -6.877577      -16.139832       -1.556540
 H          -7.658499      -15.041345       -0.476733
 H          -7.203876      -19.222542        0.698357
 H          -6.581967      -18.810024       -0.861553
 H          -8.591749      -17.438175       -0.454844
 H          -7.958771      -17.040434        1.101431
