20
 generated by VMD
 C         -68.179207     -188.165985      -66.571335
 N         -68.817429     -188.905655      -67.220978
 H         -68.133141     -187.258728      -63.574486
 H         -67.677208     -187.369720      -65.968307
 C         -69.182533     -187.596695      -63.623856
 C         -69.457466     -189.003113      -63.304214
 C         -70.429443     -186.707047      -63.295082
 C         -70.802910     -189.595444      -63.530865
 C         -71.755882     -187.395584      -63.800274
 C         -71.968643     -188.713989      -63.177818
 H         -69.313194     -189.073654      -62.164280
 H         -68.649780     -189.741486      -63.714527
 H         -70.536240     -186.714050      -62.224201
 H         -70.317703     -185.730667      -63.862461
 H         -70.904587     -190.609253      -63.065083
 H         -70.911530     -189.889908      -64.599960
 H         -71.780930     -187.498215      -64.890045
 H         -72.551407     -186.692307      -63.494099
 H         -72.328323     -188.639282      -62.153919
 H         -72.783516     -189.332428      -63.661079
