20
 generated by VMD
 C         -60.700302     -153.416306      -51.954155
 N         -61.373219     -154.252960      -51.674877
 H         -57.573704     -153.872375      -51.846725
 H         -60.078667     -152.553818      -52.201893
 C         -56.743057     -153.364441      -51.372414
 C         -56.411098     -153.853058      -49.981594
 C         -56.087914     -152.204926      -51.988674
 C         -54.928589     -153.800369      -49.636154
 C         -54.596043     -152.383636      -51.747147
 C         -54.296448     -152.612442      -50.162270
 H         -56.797886     -154.852997      -50.048374
 H         -56.899792     -153.226578      -49.264553
 H         -56.264458     -152.276108      -53.035412
 H         -56.470684     -151.230545      -51.626431
 H         -54.499176     -154.623047      -50.243198
 H         -54.791290     -154.067200      -48.587929
 H         -53.997467     -151.518951      -52.079529
 H         -54.254959     -153.250122      -52.177612
 H         -53.161350     -152.694946      -50.061790
 H         -54.591030     -151.742447      -49.594154
