20
 generated by VMD
 C         -22.656218      -55.195435      -15.221712
 N         -23.057175      -55.191235      -16.323605
 H         -19.246313      -54.510975      -15.405935
 H         -22.415207      -55.520851      -14.272699
 C         -19.208719      -55.350113      -14.777928
 C         -19.026333      -55.197689      -13.344221
 C         -19.545485      -56.595173      -15.461010
 C         -19.517374      -56.351227      -12.579206
 C         -19.420216      -57.923557      -14.644081
 C         -19.089975      -57.689587      -13.103040
 H         -19.515738      -54.253288      -13.075734
 H         -18.002634      -55.010250      -13.081494
 H         -20.637293      -56.623188      -15.747429
 H         -19.001898      -56.508347      -16.382803
 H         -20.603453      -56.271820      -12.508448
 H         -19.029299      -56.314087      -11.592307
 H         -18.659857      -58.559189      -15.057547
 H         -20.312193      -58.590343      -14.802464
 H         -19.473505      -58.493294      -12.419539
 H         -17.978504      -57.636509      -13.067619
