20
 generated by VMD
 C          -5.965511      -21.014620        1.633273
 N          -5.814301      -21.803108        2.397879
 H          -5.100953      -18.496206       -1.350075
 H          -5.444765      -19.925066       -0.301317
 C          -5.748027      -19.336470       -1.227040
 C          -5.512107      -20.296307       -2.417447
 C          -7.146176      -18.742931       -1.185342
 C          -6.579327      -21.350645       -2.293217
 C          -8.227781      -19.834421       -1.190792
 C          -7.985559      -20.755753       -2.443377
 H          -4.467417      -20.753704       -2.268638
 H          -5.643815      -19.874458       -3.379106
 H          -7.219051      -18.053146       -0.369306
 H          -7.221697      -18.159578       -2.022933
 H          -6.531487      -21.888847       -1.310630
 H          -6.323046      -22.126131       -3.046705
 H          -9.256687      -19.449348       -1.193429
 H          -8.202276      -20.429806       -0.265328
 H          -8.613700      -21.618000       -2.320006
 H          -8.144269      -20.192774       -3.356308
