20
 generated by VMD
 C         -30.525026      -93.210709      -25.093746
 N         -29.726053      -93.882782      -25.590302
 H         -33.814453      -91.593361      -26.480659
 H         -31.170702      -92.498802      -24.607294
 C         -34.092136      -91.546547      -27.506184
 C         -35.387367      -92.307999      -27.719816
 C         -33.246590      -90.900780      -28.549339
 C         -36.257076      -91.522240      -28.708599
 C         -34.121838      -90.361496      -29.656984
 C         -35.479797      -90.979614      -29.913502
 H         -36.065975      -92.389977      -26.692348
 H         -35.052986      -93.363144      -27.952620
 H         -32.760315      -90.038094      -28.065716
 H         -32.507957      -91.634201      -29.016209
 H         -36.757767      -90.672707      -28.132181
 H         -37.037346      -92.148155      -29.042299
 H         -33.630154      -90.199379      -30.595079
 H         -34.549534      -89.432091      -29.383188
 H         -36.219662      -90.455666      -30.632704
 H         -35.106964      -91.855873      -30.509674
