20
 generated by VMD
 C         -23.278288      -55.106812      -15.008417
 N         -22.698114      -54.925583      -15.985965
 H         -20.140440      -54.561337      -15.344080
 H         -24.028103      -55.507832      -14.344324
 C         -19.457758      -55.259274      -14.853413
 C         -18.868795      -54.979153      -13.465024
 C         -19.314436      -56.545948      -15.513713
 C         -19.255051      -56.085632      -12.492426
 C         -19.280231      -57.706066      -14.509754
 C         -18.804407      -57.427868      -13.062519
 H         -19.198008      -53.999310      -13.102624
 H         -17.790394      -54.845303      -13.445289
 H         -20.009138      -56.617435      -16.340710
 H         -18.435503      -56.610580      -16.077372
 H         -20.342546      -56.128464      -12.453557
 H         -18.798389      -55.881245      -11.490159
 H         -18.688427      -58.519646      -14.922205
 H         -20.374546      -58.055801      -14.431713
 H         -19.267305      -58.122215      -12.351291
 H         -17.707174      -57.413284      -12.969111
