20
 generated by VMD
 C         -29.504028      -88.911377      -26.061579
 N         -29.464413      -88.851097      -24.932514
 H         -31.904692      -90.874763      -27.643433
 H         -29.471994      -88.833275      -27.196856
 C         -32.454964      -89.986633      -27.479954
 C         -33.086365      -89.960724      -26.182728
 C         -33.020218      -89.338371      -28.677015
 C         -34.059139      -88.791695      -25.763086
 C         -33.951607      -88.154091      -28.276527
 C         -34.911861      -88.462379      -27.030758
 H         -32.181942      -89.813850      -25.532745
 H         -33.659908      -90.928078      -26.050684
 H         -32.321743      -88.877937      -29.395163
 H         -33.636536      -90.004150      -29.319159
 H         -33.690762      -87.913460      -25.340109
 H         -34.672024      -89.077736      -24.920815
 H         -34.593975      -87.858841      -29.182873
 H         -33.283138      -87.273590      -28.202179
 H         -35.495659      -87.501381      -26.994738
 H         -35.565342      -89.310265      -27.439024
