20
 generated by VMD
 C         -15.117908      -46.087212       -6.597475
 N         -14.695739      -47.038570       -6.231463
 H         -15.624337      -44.566349       -9.204515
 H         -14.522626      -44.817970      -10.531142
 C         -15.623635      -44.759140      -10.280498
 C         -16.442541      -43.684662      -11.047689
 C         -16.216660      -46.097286      -10.547321
 C         -16.630638      -43.857426      -12.585874
 C         -16.487738      -46.318295      -12.011648
 C         -17.272400      -45.208748      -12.729332
 H         -16.125803      -42.653919      -10.866908
 H         -17.492489      -43.620007      -10.700088
 H         -15.480948      -46.770596      -10.151959
 H         -17.129871      -46.336391       -9.976374
 H         -15.656063      -43.723946      -13.062184
 H         -17.265747      -43.059589      -13.027315
 H         -16.886372      -47.295986      -12.172111
 H         -15.455134      -46.332710      -12.555553
 H         -17.294212      -45.595009      -13.740799
 H         -18.321404      -45.110836      -12.272634
