20
 generated by VMD
 C          -2.053111      -14.821322        1.762283
 N          -1.582114      -15.367584        2.611781
 H          -3.869640      -16.356201        0.290774
 H          -4.625013      -17.101843       -1.090665
 C          -4.835734      -16.779650       -0.029051
 C          -5.908314      -15.696609       -0.171349
 C          -5.290556      -17.955864        0.746774
 C          -7.172036      -16.271276       -0.791947
 C          -6.679014      -18.526022        0.251890
 C          -7.748308      -17.401400        0.069029
 H          -5.604360      -14.890483       -0.844263
 H          -6.085767      -15.215365        0.816713
 H          -4.476608      -18.737360        0.797223
 H          -5.487046      -17.699102        1.833938
 H          -6.997147      -16.775200       -1.747140
 H          -7.872870      -15.458591       -0.920170
 H          -6.943989      -19.251850        1.021831
 H          -6.497133      -19.026487       -0.673981
 H          -8.618183      -17.720877       -0.534234
 H          -8.116278      -16.981243        1.023123
