20
 generated by VMD
 C         -30.607731      -75.801331      -22.542015
 N         -31.254557      -74.854294      -22.570042
 H         -28.762421      -78.180138      -21.543972
 H         -30.270615      -76.660316      -22.154039
 C         -27.947678      -77.505135      -21.732306
 C         -26.815462      -78.107193      -22.467381
 C         -27.620773      -76.469284      -20.640699
 C         -25.878351      -76.958809      -23.064520
 C         -26.836201      -75.315109      -21.269917
 C         -25.657030      -75.874290      -22.001310
 H         -27.193193      -78.794777      -23.200516
 H         -26.124569      -78.784630      -21.861454
 H         -28.603441      -76.142258      -20.377045
 H         -27.135788      -76.981270      -19.730536
 H         -26.371716      -76.501862      -23.961254
 H         -24.933657      -77.286377      -23.494141
 H         -26.409634      -74.701523      -20.385897
 H         -27.549000      -74.697174      -21.839266
 H         -25.437069      -74.919464      -22.548264
 H         -24.861616      -76.192451      -21.340654
