20
 generated by VMD
 C         -11.987987      -39.570164       -6.820971
 N         -10.906726      -39.459171       -6.680823
 H         -13.029716      -41.120033       -9.032892
 H         -14.304025      -39.892040       -8.815151
 C         -14.057339      -40.924419       -9.085076
 C         -14.684393      -41.833633       -8.039996
 C         -14.581475      -41.247437      -10.473816
 C         -16.209843      -41.706696       -8.140532
 C         -16.121437      -41.374741      -10.575697
 C         -16.723297      -42.234222       -9.487792
 H         -14.442391      -41.512356       -7.045028
 H         -14.293193      -42.867889       -8.150061
 H         -14.185777      -40.481991      -11.127046
 H         -14.068814      -42.191563      -10.872341
 H         -16.488991      -40.649128       -7.931617
 H         -16.664352      -42.291088       -7.373462
 H         -16.413145      -41.785156      -11.620070
 H         -16.492880      -40.402126      -10.494097
 H         -17.782089      -42.183372       -9.553770
 H         -16.491632      -43.288780       -9.598594
