20
 generated by VMD
 C         -11.511378      -38.231319       -7.792722
 N         -11.443507      -37.568645       -6.870371
 H         -12.608731      -41.598732       -8.829835
 H         -13.578657      -40.575932       -7.787774
 C         -13.603881      -41.297333       -8.631981
 C         -14.498201      -42.465733       -8.154932
 C         -14.126730      -40.495186       -9.796461
 C         -15.911904      -41.874767       -7.778592
 C         -15.613180      -40.041996       -9.538159
 C         -16.564812      -41.159458       -8.970100
 H         -14.023271      -42.907085       -7.306301
 H         -14.621360      -43.188992       -8.960788
 H         -13.527702      -39.647133      -10.042057
 H         -14.160739      -41.174152      -10.680297
 H         -15.781251      -41.126625       -6.960356
 H         -16.584282      -42.649780       -7.498283
 H         -16.132469      -39.617477      -10.477491
 H         -15.527497      -39.255890       -8.843831
 H         -17.515308      -40.703400       -8.644968
 H         -16.800184      -41.880753       -9.786803
