20
 generated by VMD
 C         -40.455299     -106.889427      -37.544777
 N         -39.373711     -106.648575      -37.869301
 H         -38.598217     -108.044899      -34.288029
 H         -41.491215     -107.117966      -37.526306
 C         -39.279560     -108.892563      -34.026440
 C         -38.713993     -110.094406      -33.192215
 C         -40.768692     -108.787193      -34.323868
 C         -39.655216     -110.608711      -32.218143
 C         -41.685280     -109.461670      -33.261822
 C         -41.096859     -110.724968      -32.701134
 H         -37.659496     -109.746017      -32.829044
 H         -38.508202     -110.830200      -33.994564
 H         -41.033382     -107.788544      -34.420818
 H         -40.896465     -109.304024      -35.294895
 H         -39.548748     -109.954277      -31.460249
 H         -39.501469     -111.647743      -31.872355
 H         -42.677238     -109.714058      -33.824863
 H         -42.086338     -108.779144      -32.466084
 H         -41.747459     -111.003807      -31.700800
 H         -41.206604     -111.510490      -33.402054
