20
 generated by VMD
 C         -40.148067     -105.795898      -36.994850
 N         -40.080555     -106.749611      -37.624359
 H         -38.781452     -107.805550      -34.876198
 H         -40.398350     -104.846130      -36.490391
 C         -39.134232     -108.629715      -34.229687
 C         -38.417118     -109.402679      -33.091984
 C         -40.625256     -108.980110      -34.523075
 C         -39.325367     -109.750954      -31.900372
 C         -41.394581     -109.206284      -33.214672
 C         -40.686344     -110.234619      -32.317036
 H         -37.522179     -108.842194      -32.778759
 H         -37.966469     -110.332741      -33.505436
 H         -41.212444     -108.088219      -34.919937
 H         -40.701584     -109.796921      -35.163204
 H         -39.264206     -108.862877      -31.291693
 H         -38.897762     -110.560974      -31.313644
 H         -42.313175     -109.737694      -33.556374
 H         -41.622456     -108.223442      -32.641457
 H         -41.248138     -110.443512      -31.424316
 H         -40.566929     -111.251068      -32.852108
