20
 generated by VMD
 C         -70.300537     -182.788315      -64.749573
 N         -70.484085     -183.673737      -65.513695
 H         -67.706787     -180.976364      -63.082329
 H         -70.204430     -181.926865      -64.050613
 C         -67.636337     -181.005615      -61.977238
 C         -67.774178     -182.326248      -61.208870
 C         -67.040001     -179.894073      -61.183594
 C         -66.495811     -182.742752      -60.384846
 C         -65.748901     -180.347183      -60.428856
 C         -65.926231     -181.634552      -59.595791
 H         -68.001892     -183.210754      -61.872784
 H         -68.723251     -182.017578      -60.536957
 H         -66.890350     -178.979828      -61.846306
 H         -67.821381     -179.632767      -60.489513
 H         -65.656960     -183.100479      -61.006451
 H         -66.660988     -183.542007      -59.772396
 H         -65.321373     -179.611908      -59.751808
 H         -65.082291     -180.481934      -61.248222
 H         -64.985329     -181.877060      -59.045628
 H         -66.531738     -181.278534      -58.799644
