20
 generated by VMD
 C         -79.631927     -205.382996      -71.800545
 N         -79.755768     -206.505051      -71.631828
 H         -77.259125     -203.942673      -71.663055
 H         -79.657516     -204.358185      -71.711327
 C         -76.467613     -204.180756      -70.933754
 C         -75.245430     -203.238297      -71.085190
 C         -76.369072     -205.576767      -70.320717
 C         -74.327515     -203.437531      -69.912186
 C         -75.362526     -205.641068      -69.196640
 C         -74.039825     -204.933243      -69.629349
 H         -75.637581     -202.240967      -71.282417
 H         -74.729111     -203.586166      -72.033585
 H         -77.237556     -206.012985      -69.911606
 H         -76.159508     -206.178802      -71.201584
 H         -74.721848     -202.840454      -69.059212
 H         -73.374588     -202.852600      -70.254684
 H         -75.236328     -206.632553      -68.857681
 H         -75.694756     -205.020447      -68.325798
 H         -73.227280     -205.213150      -68.919556
 H         -73.709366     -205.429031      -70.609367
