20
 generated by VMD
 C          -2.562371       -9.768612        0.046396
 N          -2.053908       -8.819931        0.324756
 H          -2.023820      -11.308916        2.695898
 H          -2.597631      -12.036669        4.154470
 C          -2.802461      -12.062140        3.046994
 C          -2.532306      -13.434406        2.445878
 C          -4.233737      -11.541903        2.939711
 C          -3.571154      -14.443233        2.844197
 C          -5.205594      -12.602131        3.284472
 C          -4.984317      -13.966578        2.601936
 H          -1.556564      -13.819798        2.729289
 H          -2.467646      -13.373563        1.340528
 H          -4.413459      -10.728465        3.641321
 H          -4.444605      -11.266496        1.906101
 H          -3.428176      -14.758684        3.895531
 H          -3.400152      -15.418118        2.316840
 H          -6.193350      -12.210814        3.078632
 H          -5.205280      -12.763761        4.363607
 H          -5.653935      -14.674045        3.132512
 H          -5.280728      -13.983045        1.514594
