20
 generated by VMD
 C         -50.679470     -129.533966      -45.668228
 N         -51.151203     -130.609421      -45.414310
 H         -48.749920     -131.066833      -44.059959
 H         -50.264679     -128.807678      -46.334373
 C         -48.208706     -131.011658      -43.054638
 C         -48.367481     -132.331680      -42.304741
 C         -47.868603     -129.806366      -42.194393
 C         -47.230804     -132.515350      -41.213047
 C         -46.877670     -130.090576      -41.102203
 C         -47.083736     -131.369827      -40.303501
 H         -48.322964     -133.173798      -43.037888
 H         -49.265682     -132.390335      -41.686943
 H         -47.618481     -128.922272      -42.794598
 H         -48.791466     -129.433990      -41.672909
 H         -46.277225     -132.622665      -41.741478
 H         -47.422569     -133.323853      -40.502972
 H         -46.892609     -129.197678      -40.467419
 H         -45.895638     -130.050842      -41.509766
 H         -46.236042     -131.334839      -39.705933
 H         -47.957699     -131.141479      -39.706703
