20
 generated by VMD
 C         -48.130394     -125.952003      -38.728943
 N         -48.706203     -126.965958      -38.592056
 H         -46.345898     -123.310478      -38.288425
 H         -47.548138     -125.073944      -39.084965
 C         -45.595810     -123.321411      -39.102314
 C         -44.526432     -124.294670      -39.449310
 C         -45.539410     -122.015602      -39.921055
 C         -44.369839     -124.528198      -41.023762
 C         -45.536747     -122.269852      -41.443348
 C         -44.387268     -123.264854      -41.825954
 H         -44.647846     -125.239784      -38.805321
 H         -43.461205     -123.951530      -39.267803
 H         -46.577084     -121.644630      -39.849594
 H         -44.827499     -121.245796      -39.734516
 H         -45.144428     -125.231239      -41.326385
 H         -43.401855     -124.890923      -41.236694
 H         -45.264664     -121.386864      -41.880184
 H         -46.497375     -122.522911      -41.746998
 H         -44.635601     -123.572426      -42.850735
 H         -43.362213     -122.763115      -41.961781
