20
 generated by VMD
 C         -23.177919      -68.547760      -16.629875
 N         -23.102808      -69.328415      -15.774846
 H         -23.893383      -66.168335      -18.677195
 H         -23.058857      -67.826889      -17.353281
 C         -24.449890      -66.907097      -19.175735
 C         -23.932032      -67.620079      -20.397226
 C         -25.974747      -66.957169      -19.027456
 C         -24.541740      -69.088440      -20.680260
 C         -26.468134      -68.401291      -19.277424
 C         -26.077847      -69.152992      -20.522400
 H         -22.738468      -67.708580      -20.227446
 H         -24.067034      -66.954308      -21.243715
 H         -26.297186      -66.905731      -18.033976
 H         -26.319155      -66.349304      -19.843000
 H         -24.074282      -69.641632      -19.895826
 H         -24.210598      -69.494980      -21.590837
 H         -27.542299      -68.259155      -19.345135
 H         -26.145695      -69.062057      -18.488937
 H         -26.282705      -70.278275      -20.504633
 H         -26.685871      -68.830933      -21.442493
