20
 generated by VMD
 C         -51.030460     -145.159821      -44.461239
 N         -51.073330     -146.355896      -44.571949
 H         -53.130547     -144.387466      -46.393471
 H         -51.123207     -144.058990      -44.269337
 C         -53.541767     -143.847168      -47.246426
 C         -52.668636     -143.788559      -48.489597
 C         -54.760002     -142.972443      -47.148273
 C         -53.399586     -143.738373      -49.766411
 C         -55.459045     -142.757584      -48.552452
 C         -54.473003     -142.584290      -49.737644
 H         -52.048607     -144.586212      -48.546097
 H         -51.942303     -142.982437      -48.366405
 H         -55.379383     -143.427017      -46.313129
 H         -54.459648     -142.004990      -46.825317
 H         -54.011440     -144.591736      -50.041885
 H         -52.712746     -143.519638      -50.545830
 H         -56.165344     -141.935532      -48.613781
 H         -55.857136     -143.806061      -48.691647
 H         -54.975170     -142.495651      -50.664703
 H         -53.985641     -141.696198      -49.689411
