20
 generated by VMD
 C         -12.617324      -27.378202       -4.721034
 N         -13.474977      -28.072712       -4.672172
 H         -10.699707      -29.962852       -2.567151
 H         -10.626004      -28.479139       -3.470216
 C         -10.041830      -29.325193       -3.192067
 C          -9.479455      -30.126093       -4.403071
 C          -8.872488      -28.761316       -2.379522
 C          -8.582879      -29.177500       -5.250616
 C          -8.014895      -27.833239       -3.201737
 C          -7.465512      -28.560593       -4.437119
 H         -10.238792      -30.694632       -4.957228
 H          -8.820672      -30.969078       -4.094336
 H          -9.255389      -28.240602       -1.485874
 H          -8.228072      -29.614908       -1.970253
 H          -9.247650      -28.397289       -5.578316
 H          -8.216135      -29.587845       -6.145038
 H          -7.308976      -27.285276       -2.538240
 H          -8.676469      -26.992792       -3.558223
 H          -6.841416      -27.873722       -5.013567
 H          -6.874250      -29.431204       -3.999032
