20
 generated by VMD
 C         -29.864943      -89.450661      -25.270393
 N         -29.128595      -89.775604      -26.143547
 H         -32.007423      -90.979057      -26.933233
 H         -30.648308      -88.989693      -24.600489
 C         -32.908085      -90.751472      -27.506958
 C         -34.299946      -91.164169      -27.080851
 C         -32.692608      -89.592339      -28.320808
 C         -35.082314      -89.889526      -26.673912
 C         -33.488747      -88.337379      -27.765779
 C         -34.962875      -88.729218      -27.696564
 H         -34.075146      -91.730782      -26.175262
 H         -34.753609      -91.726562      -27.871042
 H         -31.635830      -89.296646      -28.236202
 H         -32.967525      -89.685577      -29.390123
 H         -34.974564      -89.678024      -25.618593
 H         -36.138676      -90.274803      -26.652121
 H         -33.311813      -87.501183      -28.459169
 H         -33.102791      -88.017471      -26.820938
 H         -35.621677      -87.869011      -27.444874
 H         -35.138474      -89.143539      -28.883966
