20
 generated by VMD
 C         -68.986252     -181.090485      -61.239273
 N         -69.943817     -180.644165      -60.717445
 H         -67.210335     -178.573212      -59.532505
 H         -68.154823     -181.477173      -61.754463
 C         -66.414551     -177.970993      -59.814251
 C         -65.801292     -178.202744      -61.186527
 C         -65.361717     -177.483185      -58.814594
 C         -65.005280     -176.980042      -61.702023
 C         -64.722633     -176.228790      -59.345581
 C         -64.063255     -176.308777      -60.717907
 H         -66.612572     -178.500320      -61.875580
 H         -65.127487     -179.101608      -61.038136
 H         -65.899902     -177.197281      -57.884895
 H         -64.576797     -178.253189      -58.533348
 H         -65.762001     -176.079620      -62.079914
 H         -64.311661     -177.249985      -62.515560
 H         -64.047211     -175.667862      -58.652359
 H         -65.582619     -175.554230      -59.573864
 H         -63.836933     -175.322144      -61.211445
 H         -63.002071     -176.787674      -60.690384
