20
 generated by VMD
 C         -11.435594      -38.267616       -7.738382
 N         -11.504123      -37.582523       -6.876821
 H         -12.557857      -41.727497       -8.830488
 H         -13.474964      -40.651474       -7.721949
 C         -13.600099      -41.306137       -8.666552
 C         -14.547547      -42.465759       -8.182232
 C         -14.207570      -40.531010       -9.796007
 C         -15.877568      -41.835300       -7.764674
 C         -15.620429      -40.076508       -9.585016
 C         -16.550890      -41.164436       -8.985325
 H         -14.015147      -42.992577       -7.318661
 H         -14.581137      -43.290287       -8.916372
 H         -13.515105      -39.675072      -10.010311
 H         -14.099399      -41.087772      -10.691404
 H         -15.833152      -41.144527       -6.907761
 H         -16.536015      -42.639938       -7.366961
 H         -16.020439      -39.797970      -10.563033
 H         -15.667115      -39.218208       -8.863708
 H         -17.552547      -40.724934       -8.699155
 H         -16.679449      -41.878418       -9.808243
