20
 generated by VMD
 C         -41.676624     -102.286270      -34.126423
 N         -40.916355     -101.833176      -34.841087
 H         -39.472645     -103.945389      -32.563587
 H         -42.379871     -102.779930      -33.461990
 C         -38.432999     -104.083206      -32.107250
 C         -37.304661     -103.602997      -33.022888
 C         -38.113976     -105.093544      -30.914991
 C         -35.967262     -103.311478      -32.291992
 C         -36.924786     -104.420280      -30.263451
 C         -35.737045     -104.367226      -31.183788
 H         -37.640636     -102.697838      -33.597240
 H         -37.251930     -104.420357      -33.746056
 H         -38.921558     -104.993958      -30.104519
 H         -38.043690     -106.075417      -31.297184
 H         -36.018948     -102.169174      -31.969538
 H         -35.066429     -103.434998      -32.951405
 H         -36.611450     -104.984932      -29.458576
 H         -37.178871     -103.379707      -29.866930
 H         -34.809696     -104.149635      -30.674648
 H         -35.497223     -105.398499      -31.712807
