20
 generated by VMD
 C         -49.583969     -141.641418      -45.774071
 N         -49.550976     -142.250504      -44.790466
 H         -51.719223     -138.428482      -46.064251
 H         -49.468945     -140.939240      -46.598629
 C         -52.279316     -139.314240      -46.467442
 C         -52.808323     -139.549438      -47.785725
 C         -52.972721     -140.095581      -45.317554
 C         -53.161430     -141.058273      -48.232071
 C         -53.155323     -141.648331      -45.669556
 C         -53.852108     -141.788971      -47.108181
 H         -52.164574     -138.986694      -48.508625
 H         -53.815704     -139.093231      -47.783661
 H         -52.324368     -140.102966      -44.460094
 H         -53.884892     -139.676544      -45.159042
 H         -52.122368     -141.574799      -48.504055
 H         -53.791248     -141.010956      -49.242382
 H         -53.833893     -142.157257      -44.986462
 H         -52.176201     -142.024582      -45.649990
 H         -54.000126     -142.906647      -47.361439
 H         -54.847359     -141.226044      -47.128296
