20
 generated by VMD
 C         -11.580498      -38.167046       -7.804647
 N         -11.388731      -37.579166       -6.899836
 H         -12.591348      -41.608719       -8.835289
 H         -13.501413      -40.548702       -7.810018
 C         -13.607394      -41.270420       -8.566392
 C         -14.477875      -42.418674       -8.143813
 C         -14.120491      -40.489326       -9.821450
 C         -15.921430      -41.918976       -7.816519
 C         -15.607364      -40.023815       -9.492292
 C         -16.538752      -41.134220       -8.965548
 H         -14.112489      -42.917271       -7.240728
 H         -14.625179      -43.123764       -8.974541
 H         -13.498469      -39.597515      -10.044961
 H         -14.179728      -41.196777      -10.691763
 H         -15.784119      -41.246449       -6.983990
 H         -16.580042      -42.757332       -7.472454
 H         -16.005386      -39.490231      -10.311373
 H         -15.521649      -39.199360       -8.715444
 H         -17.442604      -40.680927       -8.632881
 H         -16.869911      -41.860004       -9.691813
