20
 generated by VMD
 C         -38.431881     -112.670303      -35.836426
 N         -38.019249     -112.037201      -36.688976
 H         -40.826118     -114.458588      -34.811398
 H         -39.050835     -113.006393      -35.000755
 C         -41.748676     -114.277519      -35.469620
 C         -41.898296     -114.540024      -37.005104
 C         -42.817577     -113.502518      -34.742470
 C         -43.426819     -114.758980      -37.383709
 C         -44.258774     -113.908546      -35.130577
 C         -44.305725     -113.700844      -36.717762
 H         -41.228500     -115.387512      -37.258095
 H         -41.526295     -113.535355      -37.380489
 H         -42.737564     -113.643921      -33.639656
 H         -42.732285     -112.395081      -34.897949
 H         -43.770077     -115.832848      -37.201920
 H         -43.442547     -114.517242      -38.466450
 H         -45.075169     -113.428947      -34.726509
 H         -44.353733     -114.928116      -34.887413
 H         -45.374855     -113.836639      -36.991287
 H         -43.914188     -112.763344      -36.872063
