20
 generated by VMD
 C         -38.077377     -108.013618      -37.293541
 N         -38.785557     -107.591843      -38.084595
 H         -40.731415     -108.288803      -34.360687
 H         -37.299385     -108.349144      -36.590187
 C         -40.942047     -109.316452      -34.539909
 C         -40.028591     -110.533310      -34.695400
 C         -42.315289     -109.655762      -33.991535
 C         -39.852985     -111.339142      -33.417812
 C         -42.237312     -110.450294      -32.674809
 C         -41.280880     -111.663643      -32.947006
 H         -39.086327     -110.042160      -35.012371
 H         -40.328056     -111.008270      -35.636963
 H         -42.819241     -108.700180      -33.815891
 H         -42.904793     -110.190765      -34.764397
 H         -39.380882     -110.910431      -32.626125
 H         -39.293926     -112.260689      -33.584545
 H         -43.267448     -110.992004      -32.367802
 H         -41.882214     -109.819794      -31.816599
 H         -41.183380     -112.261787      -31.981546
 H         -41.714939     -112.326576      -33.654831
