20
 generated by VMD
 C         -15.111692      -46.300659       -5.807870
 N         -14.808949      -47.375782       -5.659321
 H         -15.623088      -45.087284       -9.474653
 H         -14.715095      -45.150997      -10.922107
 C         -15.755213      -45.094391      -10.593766
 C         -16.425392      -43.848488      -11.103098
 C         -16.498878      -46.377644      -11.104371
 C         -16.617264      -43.967274      -12.596398
 C         -16.606604      -46.547981      -12.632292
 C         -17.304710      -45.277668      -13.059285
 H         -15.763968      -43.011097      -10.855142
 H         -17.341621      -43.683338      -10.562318
 H         -16.009184      -47.212807      -10.609253
 H         -17.497805      -46.430401      -10.757152
 H         -15.605575      -43.994438      -13.013668
 H         -17.110174      -43.101437      -13.027456
 H         -17.350357      -47.359188      -12.872383
 H         -15.726868      -46.731499      -13.156702
 H         -17.327755      -45.359325      -14.194597
 H         -18.312963      -45.177128      -12.680869
