20
 generated by VMD
 C         -58.253880     -166.974213      -55.918148
 N         -57.762470     -167.590958      -55.070717
 H         -60.909344     -166.104263      -54.971405
 H         -58.763752     -166.388977      -56.662727
 C         -61.637489     -165.850708      -55.704029
 C         -61.943962     -166.834045      -56.810837
 C         -62.549202     -164.702209      -55.627785
 C         -63.393692     -167.358978      -56.656967
 C         -64.087845     -165.047546      -55.510006
 C         -64.399918     -166.170013      -56.585487
 H         -61.150673     -167.633621      -56.720928
 H         -61.818501     -166.242279      -57.619255
 H         -62.295341     -164.090973      -54.766666
 H         -62.331997     -164.101944      -56.479275
 H         -63.602341     -168.042160      -55.863686
 H         -63.639595     -167.843613      -57.569405
 H         -64.763275     -164.114731      -55.829479
 H         -64.406052     -165.477341      -54.446724
 H         -65.449974     -166.494904      -56.329674
 H         -64.417191     -165.731552      -57.657372
