20
 generated by VMD
 C         -38.726501      -99.134438      -27.057735
 N         -37.728672      -99.099052      -26.448231
 H         -37.033966      -97.388657      -30.206690
 H         -39.566399      -99.033730      -27.643017
 C         -36.090057      -96.951790      -30.421045
 C         -35.449646      -97.514793      -31.654705
 C         -35.332989      -96.120468      -29.530355
 C         -34.437603      -96.481300      -32.241493
 C         -34.090240      -95.344933      -30.180067
 C         -33.377438      -96.245049      -31.127485
 H         -36.228935      -97.929161      -32.338684
 H         -34.915298      -98.365479      -31.386250
 H         -35.871517      -95.224854      -29.203047
 H         -35.016991      -96.794189      -28.758850
 H         -35.107830      -95.592216      -32.479073
 H         -34.069752      -96.914703      -33.144402
 H         -33.471626      -95.156090      -29.340424
 H         -34.441681      -94.424644      -30.720276
 H         -32.513245      -95.766289      -31.580833
 H         -33.113117      -97.193787      -30.591185
