20
 generated by VMD
 C         -67.969032     -178.523453      -58.036301
 N         -66.920776     -178.418732      -57.576973
 H         -65.317787     -176.166458      -58.596806
 H         -68.961975     -178.645294      -58.499016
 C         -65.025536     -175.681152      -59.516945
 C         -66.027939     -174.635803      -60.014832
 C         -63.545166     -175.636490      -59.901455
 C         -65.442444     -173.315094      -59.944439
 C         -63.012337     -174.177017      -59.899483
 C         -64.037712     -173.098999      -60.453640
 H         -66.882713     -174.647125      -59.425323
 H         -66.319473     -174.824951      -61.085777
 H         -62.977066     -176.291931      -59.255756
 H         -63.492607     -176.165039      -60.870575
 H         -65.415199     -172.954865      -58.942051
 H         -66.066109     -172.570099      -60.323673
 H         -62.006748     -173.993134      -60.447548
 H         -62.814907     -173.836136      -58.886826
 H         -63.634087     -172.090820      -60.399399
 H         -64.267860     -173.442856      -61.492794
