20
 generated by VMD
 C         -59.734337     -152.067474      -49.782646
 N         -58.750763     -152.440536      -50.160233
 H         -56.403133     -150.907150      -48.457462
 H         -60.679379     -151.820236      -49.377377
 C         -55.735252     -150.577698      -49.177799
 C         -54.836617     -151.619247      -49.634186
 C         -55.294315     -149.200363      -49.242477
 C         -54.307487     -151.172012      -51.049923
 C         -54.852234     -148.724594      -50.576294
 C         -53.818352     -149.661102      -51.092155
 H         -55.337360     -152.599014      -49.826988
 H         -54.093864     -151.782715      -48.876308
 H         -56.137615     -148.567352      -48.905380
 H         -54.471733     -149.170609      -48.485817
 H         -54.983330     -151.552231      -51.802647
 H         -53.338188     -151.717514      -51.237938
 H         -54.400337     -147.620377      -50.460186
 H         -55.653786     -148.629303      -51.249462
 H         -53.510563     -149.391525      -52.072655
 H         -52.966549     -149.703842      -50.443832
