20
 generated by VMD
 C         -31.091858      -74.917213      -21.669058
 N         -31.600668      -75.922440      -21.785658
 H         -28.666628      -76.285728      -21.011534
 H         -30.483219      -74.146210      -22.035519
 C         -27.567280      -76.170631      -21.140661
 C         -26.787024      -77.148079      -21.968451
 C         -26.893276      -74.876724      -20.640297
 C         -25.713320      -76.525696      -22.890263
 C         -25.904406      -74.325119      -21.663372
 C         -24.911875      -75.315834      -22.207251
 H         -27.460178      -77.694000      -22.506130
 H         -26.307112      -77.784416      -21.237118
 H         -27.645264      -74.106384      -20.315918
 H         -26.388540      -75.121208      -19.737253
 H         -26.105600      -76.051926      -23.764366
 H         -25.083454      -77.306282      -23.272459
 H         -25.353697      -73.603928      -21.122944
 H         -26.432585      -73.794701      -22.373867
 H         -24.452478      -74.826645      -23.056408
 H         -24.269018      -75.595520      -21.350485
