20
 generated by VMD
 C         -40.426903     -118.754425      -35.421497
 N         -39.524624     -118.215050      -34.997864
 H         -43.347919     -116.705872      -36.152382
 H         -41.151810     -119.548477      -35.757973
 C         -43.833469     -116.784996      -37.133675
 C         -42.924004     -117.371857      -38.188553
 C         -45.223030     -116.319283      -37.368973
 C         -43.728550     -118.273186      -39.123764
 C         -45.930183     -117.048904      -38.462425
 C         -44.971584     -117.371552      -39.665085
 H         -42.020763     -117.882172      -37.769073
 H         -42.632908     -116.482430      -38.844574
 H         -45.765789     -116.386711      -36.401981
 H         -45.051945     -115.326736      -37.536686
 H         -44.143040     -119.078735      -38.538780
 H         -43.206924     -118.573822      -40.051014
 H         -46.831779     -116.467010      -38.774048
 H         -46.349625     -117.901878      -37.943718
 H         -45.536613     -117.910057      -40.447773
 H         -44.675480     -116.309227      -39.980293
