20
 generated by VMD
 C         -27.525745      -72.769363      -17.974657
 N         -28.057575      -73.464577      -17.257286
 H         -24.888283      -70.710754      -18.710485
 H         -27.146040      -71.913811      -18.647497
 C         -25.066742      -70.870125      -19.739462
 C         -24.417477      -72.127373      -20.313988
 C         -25.641434      -69.812927      -20.652920
 C         -25.312017      -72.620270      -21.601324
 C         -26.486645      -70.407196      -21.671417
 C         -25.714123      -71.365570      -22.554132
 H         -24.370123      -72.863228      -19.587492
 H         -23.448925      -71.872322      -20.675171
 H         -26.255630      -69.031075      -20.229929
 H         -24.789532      -69.334625      -21.160984
 H         -26.150574      -73.031784      -21.036341
 H         -24.860018      -73.449013      -22.122252
 H         -26.984552      -69.658112      -22.268316
 H         -27.372234      -70.953773      -21.346111
 H         -26.289675      -71.736519      -23.441675
 H         -24.856678      -70.779388      -22.847368
