20
 generated by VMD
 C         -64.801659     -175.412582      -55.840702
 N         -64.102661     -176.059662      -56.510017
 H         -65.568115     -174.284241      -59.012463
 H         -65.500740     -174.917740      -55.210308
 C         -64.963303     -173.444809      -58.982925
 C         -65.324509     -172.214996      -58.226540
 C         -63.966011     -173.341873      -60.123745
 C         -64.443542     -170.923950      -58.403522
 C         -63.122086     -172.067780      -60.117378
 C         -63.872581     -170.739899      -59.854935
 H         -65.270279     -172.422348      -57.124939
 H         -66.308563     -171.890640      -58.481152
 H         -63.360527     -174.335266      -60.256775
 H         -64.625572     -173.131546      -61.016884
 H         -63.572029     -171.018539      -57.676888
 H         -65.037750     -170.035751      -58.062035
 H         -62.667500     -171.975098      -61.084721
 H         -62.335442     -172.090912      -59.299072
 H         -63.192642     -169.940994      -59.906170
 H         -64.730690     -170.641098      -60.534718
