20
 generated by VMD
 C         -59.781269     -157.531998      -56.750496
 N         -59.215275     -158.566803      -56.643494
 H         -60.470409     -157.634399      -52.832729
 H         -60.351818     -156.584457      -56.813168
 C         -59.729534     -158.423309      -52.644604
 C         -58.302914     -158.046295      -52.288483
 C         -60.171024     -159.825958      -53.048416
 C         -57.827072     -159.262527      -51.326408
 C         -59.645115     -160.873596      -52.109432
 C         -58.116428     -160.689163      -51.812923
 H         -58.342472     -157.127838      -51.776627
 H         -57.721458     -158.060226      -53.215351
 H         -61.301697     -159.839600      -53.021812
 H         -59.921032     -159.964844      -54.135612
 H         -58.370979     -159.116806      -50.336163
 H         -56.814991     -159.000092      -51.010063
 H         -60.037453     -161.848038      -52.380928
 H         -60.063484     -160.786560      -51.046772
 H         -57.722515     -161.456650      -51.076752
 H         -57.532326     -160.940552      -52.638191
