20
 generated by VMD
 C         -79.474892     -206.772476      -74.717575
 N         -80.107521     -207.681885      -74.307625
 H         -76.969383     -207.368530      -73.182159
 H         -78.706215     -206.106949      -75.224464
 C         -76.883224     -207.824722      -72.185547
 C         -75.682892     -207.398193      -71.484367
 C         -77.745094     -208.915756      -71.662514
 C         -75.674385     -207.597565      -69.994286
 C         -78.062439     -208.599991      -70.212532
 C         -76.737083     -208.514221      -69.372055
 H         -75.555000     -206.279327      -71.644310
 H         -74.737213     -207.864410      -71.837769
 H         -78.691986     -208.958801      -72.288788
 H         -77.358002     -209.936157      -71.675514
 H         -75.898972     -206.681976      -69.530022
 H         -74.772453     -207.981567      -69.556725
 H         -78.871208     -209.268280      -69.818413
 H         -78.486084     -207.643906      -70.367043
 H         -76.867363     -208.142090      -68.320251
 H         -76.292412     -209.524200      -69.151031
