20
 generated by VMD
 C         -41.064369     -102.520439      -34.998310
 N         -41.525898     -102.987389      -35.962856
 H         -39.596256     -104.185768      -32.268799
 H         -40.490261     -102.095116      -34.200771
 C         -38.720272     -104.808655      -32.408607
 C         -37.440620     -104.294113      -33.008053
 C         -38.732529     -106.193314      -31.822586
 C         -36.399940     -104.275383      -31.884777
 C         -37.809254     -106.143570      -30.593306
 C         -36.403175     -105.655373      -31.133390
 H         -37.584099     -103.238045      -33.312241
 H         -37.130829     -104.814713      -33.882648
 H         -39.702435     -106.588333      -31.576689
 H         -38.286087     -106.817474      -32.624653
 H         -36.542542     -103.445007      -31.217981
 H         -35.413605     -103.985680      -32.258808
 H         -37.747150     -107.202957      -30.119844
 H         -38.062294     -105.384377      -29.839373
 H         -35.757156     -105.488609      -30.217445
 H         -35.937572     -106.342598      -31.742933
