20
 generated by VMD
 C         -49.549847     -127.706970      -39.981808
 N         -50.478100     -127.623093      -40.639877
 H         -47.510128     -127.473557      -42.008003
 H         -48.539700     -127.718155      -39.561459
 C         -46.873890     -126.689842      -41.481522
 C         -45.763542     -127.264778      -40.488899
 C         -46.738331     -125.244629      -41.804035
 C         -44.397919     -126.560616      -40.513451
 C         -45.347237     -124.538582      -41.726151
 C         -44.584972     -125.029655      -40.562611
 H         -45.520885     -128.379089      -40.625134
 H         -46.274498     -127.240463      -39.522408
 H         -47.244099     -124.930466      -42.691471
 H         -47.460361     -124.623154      -41.100433
 H         -43.636604     -126.825027      -41.225777
 H         -43.968708     -126.866920      -39.567337
 H         -45.290981     -123.492767      -41.610687
 H         -44.830261     -124.803963      -42.594799
 H         -43.548500     -124.588593      -40.504002
 H         -45.143864     -124.844971      -39.622047
