20
 generated by VMD
 C         -31.018499      -75.771034      -22.611959
 N         -31.062695      -74.789207      -23.270178
 H         -28.720898      -78.599823      -21.499037
 H         -31.152447      -76.467606      -21.880819
 C         -27.767683      -77.999260      -21.482054
 C         -26.800356      -78.257591      -22.706152
 C         -27.554647      -76.827423      -20.500488
 C         -26.205132      -76.888008      -23.182869
 C         -26.921936      -75.650497      -21.052691
 C         -25.740942      -76.048264      -21.965145
 H         -27.298376      -78.718414      -23.466631
 H         -25.929384      -78.746422      -22.353836
 H         -28.433945      -76.578987      -19.989700
 H         -26.849073      -77.170326      -19.684891
 H         -27.052624      -76.431786      -23.707960
 H         -25.402342      -77.166840      -23.863245
 H         -26.545919      -74.827850      -20.259111
 H         -27.720695      -75.156982      -21.682886
 H         -25.159832      -75.099464      -22.174082
 H         -25.047243      -76.670044      -21.414268
