20
 generated by VMD
 C         -50.125305     -130.414230      -45.961853
 N         -50.907684     -130.057190      -45.273956
 H         -47.787575     -132.317474      -44.567139
 H         -49.655476     -130.999222      -46.754654
 C         -48.003738     -132.108368      -43.509312
 C         -48.431717     -133.332901      -42.740795
 C         -48.336411     -130.782852      -42.746162
 C         -47.857128     -133.349075      -41.230091
 C         -47.729591     -130.824463      -41.393059
 C         -48.158936     -132.018158      -40.580379
 H         -48.174168     -134.210007      -43.257553
 H         -49.556870     -133.341537      -42.716393
 H         -47.794170     -129.998550      -43.206989
 H         -49.394348     -130.643341      -42.661659
 H         -46.784836     -133.543488      -41.388218
 H         -48.355396     -134.203308      -40.718693
 H         -48.076565     -130.020920      -40.791492
 H         -46.660732     -130.934372      -41.352539
 H         -47.625633     -132.063751      -39.601467
 H         -49.190857     -131.896729      -40.170494
