20
 generated by VMD
 C         -68.226585     -179.460220      -58.421577
 N         -67.373207     -179.000656      -57.765900
 H         -66.158585     -176.323914      -58.928394
 H         -69.090935     -179.734665      -59.039356
 C         -65.420097     -175.753708      -59.561260
 C         -66.125038     -174.686447      -60.442955
 C         -63.981831     -176.056931      -59.648643
 C         -65.213852     -173.458069      -60.479374
 C         -63.167194     -174.670944      -59.594189
 C         -63.776062     -173.681107      -60.667309
 H         -67.116005     -174.456085      -60.035938
 H         -66.304932     -175.264252      -61.483242
 H         -63.653687     -176.664047      -58.843266
 H         -63.660660     -176.535767      -60.568630
 H         -65.503456     -172.924545      -59.567013
 H         -65.612526     -172.756683      -61.256020
 H         -62.116726     -174.848404      -59.954388
 H         -63.020641     -174.377411      -58.567497
 H         -63.298122     -172.770721      -60.370838
 H         -63.355900     -174.105286      -61.636856
