20
 generated by VMD
 C         -66.975845     -191.336945      -66.226517
 N         -67.541710     -190.744186      -67.011749
 H         -70.422234     -190.178772      -66.525360
 H         -66.270378     -191.957809      -65.654045
 C         -71.124527     -190.161667      -65.662926
 C         -72.091133     -191.247559      -65.548523
 C         -70.809898     -189.260086      -64.599754
 C         -73.359077     -190.780670      -64.717468
 C         -71.947571     -188.944672      -63.539833
 C         -72.935211     -190.107330      -63.425781
 H         -71.662827     -192.135620      -65.043510
 H         -72.464447     -191.497757      -66.551796
 H         -69.993942     -189.621796      -63.984585
 H         -70.431999     -188.310730      -64.897606
 H         -74.056931     -191.629562      -64.555328
 H         -74.044662     -190.155746      -65.320778
 H         -72.463989     -188.029770      -63.884857
 H         -71.487099     -188.585846      -62.583973
 H         -72.376213     -190.899780      -62.812984
 H         -73.847214     -189.846252      -62.805202
