20
 generated by VMD
 C         -16.952612      -47.887527       -7.163154
 N         -16.512831      -46.865536       -7.073267
 H         -16.579170      -48.445549      -10.429234
 H         -15.462098      -48.210548      -11.666173
 C         -16.371622      -47.793644      -11.236411
 C         -16.065750      -46.477509      -10.619143
 C         -17.545570      -47.898308      -12.299348
 C         -15.709893      -45.590034      -11.780871
 C         -17.245239      -46.924480      -13.451460
 C         -16.806074      -45.584240      -12.893269
 H         -15.246722      -46.551895       -9.868951
 H         -16.939825      -46.069317      -10.092749
 H         -17.472864      -48.883453      -12.713623
 H         -18.540411      -47.697353      -11.877048
 H         -14.857112      -46.062366      -12.320592
 H         -15.440935      -44.569614      -11.473330
 H         -18.168982      -46.974121      -14.084204
 H         -16.380278      -47.250080      -14.090601
 H         -16.313549      -45.046127      -13.718486
 H         -17.674011      -45.021183      -12.443831
