20
 generated by VMD
 C         -18.249022      -49.206467       -8.062570
 N         -19.159203      -49.834946       -8.139322
 H         -16.289450      -47.477272       -9.970502
 H         -16.808270      -48.987156      -10.767448
 C         -16.505915      -47.937706      -10.951304
 C         -15.320721      -47.866497      -11.883378
 C         -17.740189      -47.239819      -11.542863
 C         -15.603872      -48.522675      -13.200178
 C         -18.053631      -47.602406      -12.990062
 C         -16.742788      -47.700310      -13.914705
 H         -14.435512      -48.376839      -11.394188
 H         -15.212175      -46.801373      -12.035302
 H         -18.637188      -47.518078      -11.002357
 H         -17.545818      -46.148750      -11.480348
 H         -15.910655      -49.559387      -13.011802
 H         -14.748158      -48.498135      -13.870764
 H         -18.737137      -46.783543      -13.380400
 H         -18.566000      -48.501862      -13.097475
 H         -16.951775      -48.117626      -14.902182
 H         -16.408356      -46.651016      -14.098826
