20
 generated by VMD
 C         -49.972996     -128.557083      -43.326996
 N         -50.676769     -129.154709      -44.018139
 H         -48.735130     -128.395767      -40.068127
 H         -49.269596     -128.048325      -42.681919
 C         -47.698284     -128.191360      -40.298668
 C         -46.777493     -129.284195      -39.981087
 C         -47.426212     -126.986824      -40.982841
 C         -45.747772     -129.499313      -41.031345
 C         -46.383980     -127.194168      -42.078777
 C         -45.243309     -128.161621      -41.685738
 H         -47.393097     -130.160889      -39.815830
 H         -46.221676     -129.075760      -39.043297
 H         -48.234566     -126.610603      -41.481529
 H         -46.913929     -126.153107      -40.368507
 H         -46.143459     -130.168274      -41.836369
 H         -44.923954     -130.176254      -40.788284
 H         -45.969250     -126.181923      -42.488564
 H         -46.910717     -127.654060      -42.990116
 H         -44.675617     -128.511368      -42.529099
 H         -44.521393     -127.742226      -40.967373
