20
 generated by VMD
 C         -28.071125      -73.123825      -18.303549
 N         -28.835455      -73.515427      -17.510307
 H         -25.205639      -71.701515      -18.692579
 H         -27.064051      -72.906250      -18.938242
 C         -25.381643      -71.819687      -19.796286
 C         -24.577147      -72.793709      -20.538895
 C         -25.860424      -70.655220      -20.513186
 C         -25.199503      -72.979019      -22.086060
 C         -26.445292      -70.831696      -21.809328
 C         -25.431364      -71.598724      -22.658192
 H         -24.456987      -73.720329      -19.990908
 H         -23.453735      -72.409317      -20.788280
 H         -26.658995      -70.132004      -19.959351
 H         -25.140120      -69.896645      -20.633537
 H         -26.161600      -73.566254      -21.974689
 H         -24.576719      -73.641983      -22.740816
 H         -26.631441      -69.848465      -22.270401
 H         -27.446472      -71.399422      -21.821415
 H         -25.844074      -71.802589      -23.658709
 H         -24.488928      -71.110588      -22.886486
