20
 generated by VMD
 C         -52.880264     -146.672211      -44.531677
 N         -51.783257     -146.726685      -44.939625
 H         -54.245529     -146.241089      -47.397026
 H         -53.857491     -146.473450      -44.046738
 C         -54.000610     -145.267380      -47.901642
 C         -52.932571     -145.167267      -48.946354
 C         -54.905148     -144.142639      -47.675362
 C         -53.505413     -144.495865      -50.296215
 C         -55.268394     -143.466064      -48.911968
 C         -54.148922     -143.232849      -49.840130
 H         -52.632072     -146.129135      -49.171562
 H         -52.125263     -144.620605      -48.460262
 H         -55.730061     -144.468292      -47.016579
 H         -54.471622     -143.448807      -46.943542
 H         -54.180752     -145.237778      -50.766838
 H         -52.611267     -144.437378      -50.894794
 H         -55.611412     -142.499588      -48.738644
 H         -56.143070     -143.978790      -49.443214
 H         -54.541538     -142.702927      -50.634865
 H         -53.474453     -142.601562      -49.322399
