20
 generated by VMD
 C          -1.226649      -12.604950        1.278373
 N          -0.703836      -12.744793        0.290320
 H          -4.202371      -12.897285        1.131355
 H          -5.729312      -13.190623        0.547098
 C          -5.001055      -13.650961        1.170453
 C          -5.359815      -14.099088        2.591081
 C          -4.458115      -14.920636        0.466311
 C          -6.447266      -15.150273        2.615628
 C          -5.521206      -16.101543        0.439707
 C          -6.077263      -16.380119        1.877245
 H          -5.749017      -13.185167        3.081997
 H          -4.483893      -14.491735        3.056946
 H          -4.183670      -14.594283       -0.490965
 H          -3.562384      -15.200493        0.931152
 H          -7.379088      -14.717519        2.197024
 H          -6.680458      -15.393108        3.685882
 H          -5.057841      -17.038082        0.066251
 H          -6.391244      -15.834584       -0.223848
 H          -6.805916      -17.170959        1.938096
 H          -5.187317      -16.715408        2.404502
