20
 generated by VMD
 C         -22.450979      -55.242573      -17.215824
 N         -22.970942      -54.728065      -18.181137
 H         -20.788340      -56.176144      -14.569322
 H         -21.919291      -55.315563      -16.341059
 C         -20.448835      -57.113312      -14.343106
 C         -20.744692      -57.687775      -13.034510
 C         -19.305960      -57.727749      -15.111503
 C         -20.862766      -59.319633      -13.036815
 C         -19.453526      -59.304741      -15.193742
 C         -19.784872      -60.120392      -13.821370
 H         -21.650805      -57.292076      -12.607798
 H         -19.854292      -57.483398      -12.421814
 H         -19.308678      -57.210510      -16.074408
 H         -18.265373      -57.643208      -14.652531
 H         -21.792027      -59.555149      -13.591485
 H         -21.079458      -59.555172      -11.958529
 H         -18.619837      -59.772793      -15.703280
 H         -20.259123      -59.404728      -15.966147
 H         -20.081480      -61.060349      -14.180799
 H         -18.851425      -60.242512      -13.250395
