20
 generated by VMD
 C         -22.998049      -53.455383      -13.861133
 N         -23.710112      -52.891441      -14.537475
 H         -20.525070      -54.996952      -14.802896
 H         -22.455051      -54.271027      -13.211215
 C         -19.759745      -55.013935      -14.061420
 C         -19.165655      -53.699627      -13.782879
 C         -18.725962      -56.117657      -14.328256
 C         -17.975779      -53.785278      -12.836081
 C         -17.418430      -56.247169      -13.539717
 C         -16.877466      -54.827465      -13.260309
 H         -19.892115      -53.080662      -13.314509
 H         -19.008057      -53.282925      -14.749725
 H         -19.281054      -57.093586      -14.324391
 H         -18.438871      -55.958675      -15.353058
 H         -18.263746      -54.020031      -11.813242
 H         -17.419378      -52.827053      -12.857459
 H         -16.566944      -56.790714      -14.040787
 H         -17.604132      -56.767532      -12.634046
 H         -16.168732      -54.943340      -12.399438
 H         -16.373890      -54.358078      -14.183664
