20
 generated by VMD
 C         -19.579315      -61.500027      -16.668571
 N         -19.846899      -60.480465      -16.181171
 H         -22.076303      -62.220005      -18.161839
 H         -19.446865      -62.590057      -16.980165
 C         -22.733002      -63.065750      -17.851725
 C         -24.003592      -63.317036      -18.583326
 C         -23.059359      -62.993977      -16.374266
 C         -24.649925      -64.684662      -18.139624
 C         -23.514139      -64.405945      -15.951226
 C         -24.800289      -64.801781      -16.634146
 H         -23.975193      -63.255039      -19.655596
 H         -24.714535      -62.522423      -18.284725
 H         -22.165262      -62.744007      -15.848345
 H         -23.787687      -62.114609      -16.221806
 H         -24.000523      -65.591942      -18.559065
 H         -25.716749      -64.721634      -18.461714
 H         -23.574265      -64.447014      -14.862237
 H         -22.714622      -65.140862      -16.084795
 H         -25.168234      -65.789948      -16.420498
 H         -25.627476      -64.092590      -16.482872
