20
 generated by VMD
 C         -72.459595     -199.332184      -65.182289
 N         -71.351486     -199.355164      -64.847321
 H         -71.503807     -196.214157      -66.871971
 H         -73.487267     -199.119537      -65.450058
 C         -72.315872     -195.785339      -67.424217
 C         -72.841965     -194.506516      -67.058037
 C         -72.787750     -196.452957      -68.646919
 C         -73.938301     -193.996078      -68.048714
 C         -74.314552     -196.258102      -69.062210
 C         -74.969460     -195.170898      -68.233490
 H         -72.031189     -193.748215      -67.166809
 H         -73.158203     -194.540222      -66.075829
 H         -72.319603     -195.916611      -69.562531
 H         -72.444313     -197.556702      -68.578972
 H         -73.511749     -193.495789      -68.869415
 H         -74.451195     -193.149109      -67.537697
 H         -74.922585     -197.173828      -68.877098
 H         -74.338669     -196.038788      -70.112633
 H         -75.898064     -194.599960      -68.671661
 H         -75.287285     -195.511566      -67.328087
