20
 generated by VMD
 C         -46.488972     -124.438873      -36.258572
 N         -46.990108     -125.273315      -35.664242
 H         -44.359741     -121.784233      -37.991314
 H         -46.174191     -123.656601      -36.998016
 C         -44.592068     -121.672562      -38.982738
 C         -43.222881     -121.658737      -39.815308
 C         -45.720673     -120.883347      -39.585651
 C         -43.538963     -121.953392      -41.289467
 C         -45.933449     -121.240135      -41.037514
 C         -44.674770     -120.963425      -41.845577
 H         -42.705231     -122.512459      -39.465157
 H         -42.717979     -120.622330      -39.670208
 H         -46.684723     -121.040527      -39.099136
 H         -45.557106     -119.778366      -39.476639
 H         -43.942833     -122.912842      -41.355564
 H         -42.633423     -121.781273      -41.814686
 H         -46.720867     -120.647720      -41.577000
 H         -46.274807     -122.274902      -41.166534
 H         -44.778519     -121.160873      -42.932152
 H         -44.348988     -119.938507      -41.870041
