20
 generated by VMD
 C         -60.219685     -170.699280      -55.201649
 N         -59.235344     -171.242447      -55.246593
 H         -63.360634     -170.722610      -57.069061
 H         -61.185242     -170.252518      -55.196747
 C         -63.406773     -169.642242      -56.847290
 C         -62.435120     -168.793533      -57.585388
 C         -64.577797     -168.882050      -56.503258
 C         -62.936581     -167.929398      -58.686100
 C         -65.270638     -168.055710      -57.575680
 C         -64.272728     -167.146194      -58.373737
 H         -61.713020     -169.445541      -57.861977
 H         -61.987812     -167.981247      -56.831913
 H         -65.188751     -169.730545      -56.079769
 H         -64.256714     -168.283051      -55.615528
 H         -62.924576     -168.415649      -59.637280
 H         -62.303047     -167.133682      -58.857662
 H         -65.994324     -167.374878      -56.955074
 H         -65.924782     -168.658493      -58.355717
 H         -64.771286     -166.803391      -59.333759
 H         -63.917709     -166.293564      -57.838959
