20
 generated by VMD
 C         -37.878227      -98.703499      -27.440769
 N         -37.611336      -98.504959      -26.340021
 H         -36.814766      -96.573990      -29.583950
 H         -38.076298      -99.035141      -28.516079
 C         -35.727329      -96.746147      -29.771601
 C         -35.427582      -97.312866      -31.033297
 C         -34.773228      -95.789581      -29.139214
 C         -34.778160      -96.336983      -32.077427
 C         -34.253891      -94.845840      -30.238951
 C         -33.596375      -95.608002      -31.392509
 H         -36.419415      -97.647476      -31.340086
 H         -34.915195      -98.262794      -30.956484
 H         -35.036400      -95.126534      -28.306194
 H         -34.014668      -96.496384      -28.775795
 H         -35.623421      -95.605881      -32.347126
 H         -34.436028      -96.838043      -32.973450
 H         -33.539425      -94.208672      -29.730556
 H         -34.994358      -94.114586      -30.553022
 H         -33.129250      -94.888062      -32.162807
 H         -32.830418      -96.380699      -31.103144
