20
 generated by VMD
 C         -28.453032      -74.113998      -18.567785
 N         -29.344193      -73.489853      -18.122654
 H         -26.017464      -72.417732      -18.894911
 H         -27.864914      -74.601028      -19.237539
 C         -25.562868      -72.285973      -19.814970
 C         -24.764048      -73.254456      -20.635088
 C         -25.704828      -70.946571      -20.503090
 C         -25.439968      -73.476463      -22.070578
 C         -26.320866      -71.044136      -21.946508
 C         -25.425983      -71.979645      -22.818277
 H         -24.686617      -74.290169      -20.155935
 H         -23.767735      -72.918915      -20.755617
 H         -26.363207      -70.239861      -19.969048
 H         -24.697317      -70.507446      -20.565725
 H         -26.472012      -73.789383      -21.864388
 H         -24.945877      -74.257126      -22.657871
 H         -26.210545      -70.045120      -22.289186
 H         -27.301443      -71.420700      -21.811346
 H         -25.909500      -71.865395      -23.893635
 H         -24.364435      -71.643974      -22.924456
