20
 generated by VMD
 C         -80.291992     -205.550735      -71.866348
 N         -79.779198     -206.565704      -71.800827
 H         -77.081108     -203.709091      -70.501289
 H         -80.672539     -204.564957      -72.050415
 C         -76.302551     -204.273239      -70.992233
 C         -74.998039     -203.597534      -71.255211
 C         -76.321609     -205.714844      -70.631508
 C         -74.370384     -203.547760      -69.887558
 C         -75.432968     -205.860474      -69.361015
 C         -74.191414     -204.913605      -69.234749
 H         -75.101265     -202.569748      -71.547432
 H         -74.307030     -204.134506      -72.008720
 H         -77.259674     -206.147827      -70.572388
 H         -75.732330     -206.294479      -71.361580
 H         -74.850693     -202.684326      -69.355904
 H         -73.258224     -203.204697      -70.074875
 H         -75.012802     -206.789902      -69.275322
 H         -76.148491     -205.683823      -68.527367
 H         -73.852631     -204.901489      -68.203491
 H         -73.359245     -205.556976      -69.682556
