20
 generated by VMD
 C         -28.049156      -72.628822      -18.057106
 N         -28.344690      -73.600868      -17.476202
 H         -25.126684      -71.589905      -18.614733
 H         -27.997974      -71.669556      -18.761917
 C         -25.194122      -71.502525      -19.736263
 C         -24.521786      -72.596062      -20.540979
 C         -25.758692      -70.248032      -20.412806
 C         -25.089741      -72.774986      -21.943064
 C         -26.613581      -70.801643      -21.766928
 C         -25.536921      -71.522087      -22.672291
 H         -24.757566      -73.551125      -20.117023
 H         -23.518433      -72.460297      -20.544222
 H         -26.486849      -69.696602      -19.722033
 H         -24.971960      -69.593872      -20.787861
 H         -25.957869      -73.465225      -22.012892
 H         -24.207882      -73.097664      -22.523355
 H         -27.200529      -70.007286      -22.226624
 H         -27.302513      -71.552467      -21.518076
 H         -25.834684      -71.865044      -23.639063
 H         -24.629187      -70.847198      -22.864019
