20
 generated by VMD
 C         -11.574301      -26.893551       -0.841403
 N         -12.490626      -26.408295       -1.226579
 H         -10.323759      -26.120619       -4.010755
 H          -9.075848      -25.608246       -5.243455
 C          -9.258628      -26.020321       -4.241698
 C          -8.606404      -27.435173       -4.113897
 C          -8.690326      -25.131950       -3.091140
 C          -7.135169      -27.322149       -4.398376
 C          -7.180555      -24.993418       -3.400948
 C          -6.495696      -26.403740       -3.369114
 H          -8.941936      -28.045357       -4.923353
 H          -8.852070      -27.845631       -3.121865
 H          -9.242335      -24.202887       -3.173184
 H          -8.773633      -25.656076       -2.058855
 H          -6.861081      -27.070887       -5.394620
 H          -6.757594      -28.316084       -4.209176
 H          -6.732453      -24.387199       -2.629378
 H          -6.870368      -24.508144       -4.312279
 H          -5.433744      -26.320734       -3.640172
 H          -6.466912      -26.868906       -2.359727
