20
 generated by VMD
 C         -55.674870     -148.987915      -45.489185
 N         -55.066750     -149.501007      -44.688499
 H         -54.183372     -148.005417      -48.113365
 H         -56.081734     -148.450699      -46.359180
 C         -54.195248     -147.255386      -48.952393
 C         -53.159565     -147.333282      -49.953812
 C         -54.993374     -145.993439      -48.549599
 C         -53.443134     -146.262436      -51.098042
 C         -55.234440     -145.079010      -49.725056
 C         -53.932129     -144.831390      -50.594536
 H         -53.032509     -148.369781      -50.141132
 H         -52.171047     -147.059326      -49.425941
 H         -55.963058     -146.283676      -48.061771
 H         -54.328030     -145.425690      -47.754612
 H         -54.212643     -146.734329      -51.807644
 H         -52.509480     -146.167450      -51.655132
 H         -55.646389     -144.027084      -49.366173
 H         -56.000706     -145.530609      -50.371574
 H         -53.928741     -144.214859      -51.543186
 H         -53.120350     -144.655014      -49.893284
