20
 generated by VMD
 C         -50.703186     -145.049393      -44.847004
 N         -50.839077     -146.034637      -44.276581
 H         -53.507996     -144.372604      -46.412697
 H         -50.532421     -144.156616      -45.477615
 C         -53.588348     -143.575714      -47.119972
 C         -52.548649     -143.511627      -48.242645
 C         -54.679428     -142.623978      -47.108070
 C         -53.327389     -143.520401      -49.631470
 C         -55.478001     -142.670441      -48.434097
 C         -54.569115     -142.464249      -49.632591
 H         -51.997761     -144.419128      -48.138115
 H         -51.999977     -142.608185      -48.164448
 H         -55.262409     -142.788742      -46.233238
 H         -54.259060     -141.661301      -46.996563
 H         -53.745602     -144.519516      -49.946869
 H         -52.589386     -143.346451      -50.425190
 H         -56.373531     -142.011948      -48.566231
 H         -55.890526     -143.673141      -48.413208
 H         -55.097641     -142.748581      -50.528111
 H         -54.226021     -141.472366      -49.585258
