20
 generated by VMD
 C         -70.333839     -182.514755      -63.676968
 N         -69.508018     -182.886505      -64.423851
 H         -68.560966     -180.198532      -62.380241
 H         -71.034485     -182.137939      -62.886475
 C         -67.987770     -180.491608      -61.547405
 C         -67.586975     -181.859955      -61.126911
 C         -67.129089     -179.382736      -60.809326
 C         -66.108719     -182.083908      -61.095364
 C         -65.682411     -179.715042      -60.532295
 C         -65.416878     -181.100998      -60.099300
 H         -68.078247     -182.600479      -61.801003
 H         -68.116264     -182.003754      -60.212360
 H         -67.002007     -178.431244      -61.477997
 H         -67.716316     -179.103622      -59.879166
 H         -65.569336     -182.055191      -62.136875
 H         -66.001373     -183.140732      -60.611622
 H         -65.445160     -179.153427      -59.619595
 H         -65.117950     -179.375168      -61.383636
 H         -64.333282     -181.271072      -60.260330
 H         -65.649109     -181.136688      -59.074097
