20
 generated by VMD
 C         -57.232220     -151.000320      -48.378925
 N         -58.306740     -151.227219      -48.539299
 H         -54.274567     -148.857437      -47.351757
 H         -56.236366     -150.635513      -48.288090
 C         -54.391056     -148.600098      -48.431992
 C         -53.661522     -149.495499      -49.341919
 C         -54.581268     -147.144989      -48.746948
 C         -54.346836     -149.439972      -50.741776
 C         -55.192436     -147.089996      -50.119289
 C         -54.465427     -148.088745      -51.236134
 H         -53.767807     -150.455948      -48.897823
 H         -52.563374     -149.485535      -49.477306
 H         -55.315033     -146.703064      -47.987530
 H         -53.599670     -146.582275      -48.560097
 H         -55.308384     -149.928101      -50.618088
 H         -53.834381     -150.095947      -51.473751
 H         -54.959198     -146.065536      -50.543098
 H         -56.338360     -147.159058      -50.020077
 H         -55.095200     -147.972168      -52.156029
 H         -53.499378     -147.590546      -51.359814
