20
 generated by VMD
 C         -30.849852      -78.186493      -26.093260
 N         -31.808405      -77.585732      -25.834806
 H         -29.322556      -77.847855      -22.736021
 H         -29.952715      -78.783615      -25.920483
 C         -28.864471      -78.805939      -22.865450
 C         -27.416815      -78.961510      -23.195341
 C         -29.648226      -79.966629      -22.415487
 C         -26.698557      -79.807526      -22.125463
 C         -28.967567      -80.718948      -21.335659
 C         -27.500326      -81.011063      -21.782682
 H         -27.053459      -77.980179      -23.251078
 H         -27.249199      -79.444946      -24.080837
 H         -30.650906      -79.579033      -22.000017
 H         -29.789154      -80.705093      -23.160406
 H         -26.614975      -79.129181      -21.269278
 H         -25.719311      -80.126999      -22.382227
 H         -29.526535      -81.571609      -20.875221
 H         -28.820839      -80.066643      -20.370821
 H         -26.973162      -81.643883      -21.013546
 H         -27.503014      -81.641876      -22.756037
