20
 generated by VMD
 C          -1.222748      -12.561209        1.287845
 N          -0.727777      -12.724901        0.315100
 H          -4.124600      -12.952909        1.218449
 H          -5.874019      -13.162002        0.644345
 C          -4.988545      -13.651637        1.129732
 C          -5.294841      -14.074032        2.603492
 C          -4.507028      -14.907691        0.440830
 C          -6.424938      -15.113465        2.659623
 C          -5.520732      -16.094286        0.456184
 C          -6.050476      -16.360094        1.868354
 H          -5.710626      -13.259864        3.141141
 H          -4.407917      -14.507332        3.110157
 H          -4.262198      -14.784977       -0.648528
 H          -3.561239      -15.250871        0.932792
 H          -7.303500      -14.702240        2.136564
 H          -6.660583      -15.418087        3.667350
 H          -5.045175      -16.987629        0.083807
 H          -6.347909      -15.883845       -0.227913
 H          -6.918577      -17.072916        1.968320
 H          -5.213630      -16.792213        2.495279
