20
 generated by VMD
 C         -58.925072     -152.610855      -50.713451
 N         -59.953537     -152.931915      -50.424477
 H         -56.889797     -151.458984      -48.548981
 H         -57.947773     -152.172852      -50.940781
 C         -56.132664     -151.153305      -49.291039
 C         -55.390602     -152.223679      -50.018436
 C         -55.810936     -149.770126      -49.484051
 C         -54.526066     -151.847031      -51.299126
 C         -54.762833     -149.459869      -50.566837
 C         -53.785069     -150.570251      -50.855659
 H         -56.124062     -153.030121      -50.329636
 H         -54.750908     -152.721283      -49.293972
 H         -56.716793     -149.147858      -49.547733
 H         -55.411484     -149.493820      -48.451305
 H         -55.087204     -151.768082      -52.201248
 H         -53.761227     -152.643906      -51.403309
 H         -54.084171     -148.657486      -50.294292
 H         -55.419014     -149.033646      -51.382427
 H         -53.030342     -150.295197      -51.653816
 H         -53.397606     -150.952423      -49.866840
