20
 generated by VMD
 C         -68.286118     -185.191986      -67.461342
 N         -67.611778     -185.987366      -66.946320
 H         -69.812920     -185.161316      -64.580147
 H         -68.890083     -184.490936      -68.002968
 C         -69.683083     -185.514267      -63.499348
 C         -70.760292     -185.148315      -62.561802
 C         -68.706467     -186.616455      -63.237854
 C         -70.447189     -185.361237      -61.119904
 C         -68.335762     -186.516678      -61.689533
 C         -69.618568     -186.666412      -60.841885
 H         -71.594185     -185.854889      -62.848148
 H         -70.982887     -184.105270      -62.627087
 H         -69.160706     -187.560211      -63.542454
 H         -67.884987     -186.267593      -63.776848
 H         -71.444748     -185.518768      -60.650143
 H         -69.910225     -184.550858      -60.697742
 H         -67.924492     -185.536926      -61.579166
 H         -67.681709     -187.306320      -61.368679
 H         -70.177010     -187.507736      -61.237686
 H         -69.238235     -186.733002      -59.785763
