20
 generated by VMD
 C         -67.616722     -179.577255      -58.624580
 N         -68.167892     -179.750641      -59.626820
 H         -67.294167     -177.176086      -60.165878
 H         -67.176765     -179.483368      -57.664417
 C         -66.473969     -176.578964      -60.102489
 C         -66.135475     -175.917099      -61.394310
 C         -65.301781     -177.079163      -59.261208
 C         -65.001236     -174.821503      -61.257294
 C         -64.137756     -176.063248      -59.163204
 C         -63.736404     -175.406738      -60.447292
 H         -67.032021     -175.500168      -61.812778
 H         -65.630539     -176.604767      -62.095715
 H         -65.742897     -177.232941      -58.271191
 H         -65.012444     -178.087814      -59.667233
 H         -65.438499     -173.941559      -60.757427
 H         -64.587067     -174.600891      -62.194740
 H         -63.275604     -176.509766      -58.692322
 H         -64.478638     -175.344940      -58.405334
 H         -63.139740     -174.490921      -60.297657
 H         -63.255886     -176.069412      -61.145512
