20
 generated by VMD
 C         -12.412286      -30.901123       -8.444395
 N         -11.989637      -30.529964       -7.487637
 H         -11.910913      -34.387791       -7.844926
 H         -12.780642      -33.762543       -6.426120
 C         -11.928627      -34.394047       -6.692166
 C         -10.728200      -33.738182       -6.041188
 C         -12.150825      -35.777870       -6.121737
 C         -10.852209      -33.576786       -4.500926
 C         -12.237558      -35.656174       -4.621199
 C         -11.224208      -34.899475       -3.870024
 H         -10.516274      -32.734913       -6.537707
 H          -9.836377      -34.314724       -6.240231
 H         -13.048288      -36.310474       -6.448285
 H         -11.313584      -36.447769       -6.375753
 H         -11.587626      -32.763607       -4.374434
 H          -9.982039      -33.080246       -4.013488
 H         -12.362411      -36.651134       -4.187455
 H         -13.269026      -35.235813       -4.496431
 H         -11.569768      -34.694397       -2.894471
 H         -10.317747      -35.538837       -3.768493
