20
 generated by VMD
 C         -47.124584     -137.616776      -46.227585
 N         -47.192299     -136.935883      -47.109455
 H         -50.517017     -136.573135      -44.594440
 H         -47.231514     -138.405640      -45.530502
 C         -51.358513     -137.213425      -44.806644
 C         -51.376030     -138.051086      -45.943363
 C         -52.587482     -137.093033      -43.844730
 C         -52.156769     -139.326523      -45.847630
 C         -53.218193     -138.443832      -43.703579
 C         -53.432159     -139.112442      -45.024803
 H         -50.385994     -138.206680      -46.286411
 H         -51.694386     -137.365097      -46.756016
 H         -52.233955     -136.617844      -42.904751
 H         -53.366211     -136.299576      -44.232445
 H         -51.654369     -140.073975      -45.237579
 H         -52.149818     -139.792969      -46.775124
 H         -54.148781     -138.376068      -43.289139
 H         -52.719383     -139.167328      -42.952457
 H         -53.894619     -140.022446      -44.858009
 H         -54.192699     -138.601379      -45.569942
