20
 generated by VMD
 C         -23.051720      -53.063026      -12.645665
 N         -22.816717      -52.568111      -13.633958
 H         -20.459661      -54.648556      -14.033193
 H         -23.271360      -53.186596      -11.695930
 C         -19.417511      -54.328663      -13.792637
 C         -18.848783      -53.015945      -14.187144
 C         -18.515541      -55.487789      -13.690152
 C         -17.746849      -52.655697      -13.257344
 C         -17.195078      -55.080334      -13.094637
 C         -16.635233      -53.720989      -13.589478
 H         -19.612480      -52.220238      -14.023632
 H         -18.515280      -53.075203      -15.255532
 H         -19.014507      -56.245411      -13.093496
 H         -18.295979      -55.986736      -14.708997
 H         -18.109690      -52.776066      -12.207220
 H         -17.444427      -51.611710      -13.380289
 H         -16.478329      -55.839066      -13.282664
 H         -17.214556      -54.970634      -11.951520
 H         -15.743875      -53.585281      -13.038346
 H         -16.449955      -53.661537      -14.632467
