20
 generated by VMD
 C         -14.971457      -45.601906       -6.925172
 N         -14.557727      -46.628307       -6.944183
 H         -15.495276      -44.114174       -9.015695
 H         -14.558867      -44.355446      -10.547779
 C         -15.550391      -44.403290      -10.095704
 C         -16.459488      -43.404972      -10.855469
 C         -15.961391      -45.842403      -10.157015
 C         -16.662817      -43.781147      -12.291472
 C         -16.254086      -46.095486      -11.622895
 C         -17.270912      -45.140957      -12.378426
 H         -16.080450      -42.387512      -10.694366
 H         -17.465597      -43.431931      -10.404688
 H         -15.022196      -46.429836       -9.855717
 H         -16.852901      -46.155956       -9.566034
 H         -15.703371      -43.700932      -12.837020
 H         -17.296768      -43.028511      -12.765837
 H         -16.699553      -47.161854      -11.714144
 H         -15.343930      -46.126431      -12.253644
 H         -17.371935      -45.480980      -13.436846
 H         -18.278124      -45.194550      -11.955935
