20
 generated by VMD
 C          -5.829454      -21.887308        1.903310
 N          -6.572610      -22.683443        2.145053
 H          -5.195429      -19.179649       -0.869583
 H          -6.376913      -20.268524       -0.114539
 C          -6.102668      -19.783443       -1.009378
 C          -5.702914      -20.975775       -1.914002
 C          -7.162821      -18.970373       -1.725098
 C          -6.795804      -21.870115       -2.335164
 C          -8.320182      -19.833956       -2.204342
 C          -7.942081      -21.131922       -2.956837
 H          -4.909762      -21.486086       -1.367933
 H          -5.219024      -20.602648       -2.871772
 H          -7.452037      -17.989244       -1.136578
 H          -6.584480      -18.497379       -2.601504
 H          -7.165151      -22.420431       -1.450664
 H          -6.368689      -22.648397       -2.998231
 H          -9.055477      -19.295605       -2.801868
 H          -8.856939      -20.135777       -1.306140
 H          -8.824783      -21.797253       -3.099183
 H          -7.658541      -20.846861       -3.992015
