20
 generated by VMD
 C         -72.484268     -198.925217      -65.616745
 N         -73.098145     -199.801270      -65.154121
 H         -70.985275     -195.857117      -67.548920
 H         -71.824554     -198.110840      -65.740761
 C         -72.004601     -195.754532      -67.921829
 C         -72.905220     -194.757812      -67.200096
 C         -72.497955     -196.541092      -69.085648
 C         -74.311920     -194.640915      -67.733215
 C         -73.907005     -197.007370      -68.910713
 C         -74.854111     -196.077637      -67.990875
 H         -72.349281     -193.859680      -67.154640
 H         -73.044037     -194.813034      -66.077728
 H         -72.356087     -196.019974      -70.041397
 H         -71.871994     -197.403671      -69.240608
 H         -74.276314     -193.973557      -68.587708
 H         -74.867043     -194.077225      -67.006325
 H         -73.928192     -198.031723      -68.576416
 H         -74.451973     -197.037781      -69.872787
 H         -75.754318     -195.933960      -68.491646
 H         -75.268333     -196.541016      -66.918175
