20
 generated by VMD
 C         -30.346956      -74.807564      -21.051497
 N         -31.220495      -75.450562      -20.695662
 H         -27.189749      -74.982735      -19.403166
 H         -29.395792      -74.342392      -21.556274
 C         -26.837835      -74.682434      -20.391851
 C         -26.611528      -75.840294      -21.320332
 C         -26.000288      -73.415871      -20.432409
 C         -26.033947      -75.425652      -22.704746
 C         -25.465563      -73.048134      -21.836958
 C         -24.934086      -74.408226      -22.444599
 H         -27.476391      -76.586777      -21.364933
 H         -25.906010      -76.587128      -20.830721
 H         -26.558220      -72.497986      -19.957947
 H         -25.011292      -73.598343      -19.796951
 H         -26.814581      -74.998924      -23.307680
 H         -25.677937      -76.311562      -23.213999
 H         -24.741972      -72.202072      -21.841690
 H         -26.210747      -72.750046      -22.603008
 H         -24.549574      -74.118874      -23.456501
 H         -24.217968      -74.957878      -21.806229
