20
 generated by VMD
 C         -19.908390      -59.925369      -17.693375
 N         -19.503054      -58.951653      -18.102207
 H         -23.051434      -59.735348      -15.978117
 H         -20.460709      -60.797256      -17.110785
 C         -23.054384      -60.805202      -16.015163
 C         -23.142761      -61.568794      -17.223404
 C         -23.052885      -61.486877      -14.620224
 C         -22.922773      -63.061764      -17.304787
 C         -22.685345      -62.914761      -14.712533
 C         -23.209585      -63.684776      -15.949836
 H         -22.490318      -61.061810      -17.922880
 H         -24.046566      -61.296909      -17.795280
 H         -22.552259      -60.994755      -13.802088
 H         -24.107313      -61.415554      -14.341489
 H         -21.875158      -63.362957      -17.606319
 H         -23.580921      -63.501598      -18.070284
 H         -23.009090      -63.431129      -13.849464
 H         -21.617193      -62.960114      -14.772960
 H         -22.823807      -64.699760      -15.996696
 H         -24.255745      -63.877831      -15.912466
