20
 generated by VMD
 C         -63.680779     -174.825699      -56.091072
 N         -62.712227     -175.329529      -56.432934
 H         -66.354836     -173.315796      -58.559464
 H         -64.610374     -174.394394      -55.784294
 C         -65.632401     -172.638489      -58.814060
 C         -65.705978     -171.209885      -58.498188
 C         -64.604683     -173.052277      -59.759789
 C         -64.365997     -170.657455      -58.086201
 C         -63.214386     -172.286682      -59.711632
 C         -63.367653     -170.699356      -59.399792
 H         -66.355545     -171.256927      -57.517342
 H         -66.238029     -170.707230      -59.251095
 H         -64.504570     -174.125275      -59.588581
 H         -65.089348     -173.042679      -60.813770
 H         -63.843910     -171.343506      -57.371662
 H         -64.398888     -169.634186      -57.632771
 H         -62.642673     -172.645569      -60.576721
 H         -62.683346     -172.643707      -58.845253
 H         -62.409088     -170.157379      -59.230663
 H         -63.861923     -170.172195      -60.182644
