20
 generated by VMD
 C         -57.686218     -168.136795      -55.150925
 N         -56.602699     -168.474457      -54.873581
 H         -61.351913     -166.934311      -55.397202
 H         -58.645847     -167.908386      -55.541355
 C         -62.344509     -166.772232      -55.854416
 C         -62.596512     -167.342819      -57.231506
 C         -63.099285     -165.525726      -55.573689
 C         -64.103142     -167.396851      -57.524368
 C         -64.550308     -165.545258      -56.049934
 C         -64.775856     -166.066666      -57.368488
 H         -62.343933     -168.373856      -57.325905
 H         -62.079437     -166.829056      -58.033298
 H         -63.040249     -165.402191      -54.480812
 H         -62.487099     -164.719482      -55.970272
 H         -64.627075     -168.136566      -56.941956
 H         -64.315247     -167.716248      -58.544552
 H         -65.106354     -164.495667      -55.805767
 H         -65.044563     -166.147049      -55.251751
 H         -65.873718     -166.338547      -57.284576
 H         -64.584572     -165.331696      -58.209877
