20
 generated by VMD
 C         -50.120304     -144.936432      -44.525227
 N         -49.404583     -144.053406      -44.625195
 H         -52.496880     -142.331284      -45.806984
 H         -50.820824     -145.749390      -44.555744
 C         -53.157066     -142.362183      -46.666821
 C         -52.429207     -142.406509      -47.980396
 C         -54.420376     -141.748993      -46.602760
 C         -53.330429     -142.704727      -49.106377
 C         -55.421753     -142.107483      -47.907528
 C         -54.638615     -141.831970      -49.206211
 H         -51.796394     -143.295853      -47.891754
 H         -51.942554     -141.504166      -48.001144
 H         -54.932133     -142.115845      -45.742119
 H         -54.356522     -140.770538      -46.550179
 H         -53.437889     -143.744278      -49.071899
 H         -52.895557     -142.460358      -50.040321
 H         -56.379379     -141.560104      -47.805840
 H         -55.760231     -143.103622      -47.879066
 H         -55.198017     -142.100952      -50.048306
 H         -54.347939     -140.862671      -49.223568
