20
 generated by VMD
 C         -79.427887     -205.444839      -70.924103
 N         -80.303383     -206.051376      -71.367889
 H         -77.297005     -202.906555      -69.941238
 H         -78.642502     -204.819412      -70.598953
 C         -76.353592     -203.311737      -70.222733
 C         -75.343330     -202.240646      -70.380806
 C         -75.802368     -204.645676      -70.040016
 C         -73.797035     -202.640076      -70.449188
 C         -74.598961     -204.529861      -69.072601
 C         -73.336807     -203.918686      -69.745743
 H         -75.396164     -201.507904      -69.517365
 H         -75.619522     -201.763168      -71.294182
 H         -76.500519     -205.417313      -69.644531
 H         -75.468102     -204.947418      -71.096756
 H         -73.260643     -201.751801      -70.016640
 H         -73.483170     -202.517303      -71.514519
 H         -74.283035     -205.620590      -68.941345
 H         -74.918800     -204.142471      -68.142006
 H         -72.495819     -203.784958      -68.943115
 H         -73.047852     -204.759781      -70.427383
