20
 generated by VMD
 C         -78.386780     -209.542755      -76.958778
 N         -78.488411     -209.005966      -77.998016
 H         -78.915680     -210.807709      -73.548737
 H         -78.294037     -210.044174      -76.027603
 C         -78.943512     -211.638321      -72.912529
 C         -77.701492     -212.128952      -72.166817
 C         -80.133354     -212.544113      -72.885979
 C         -78.216339     -212.227539      -70.693008
 C         -80.527809     -213.152084      -71.423813
 C         -79.303864     -213.341370      -70.498833
 H         -76.871933     -211.458099      -72.252838
 H         -77.336670     -213.086838      -72.562973
 H         -81.038048     -212.132217      -73.417686
 H         -79.806839     -213.390076      -73.483795
 H         -78.525757     -211.224091      -70.273567
 H         -77.348511     -212.526154      -70.040970
 H         -80.963188     -214.049667      -71.671677
 H         -81.211533     -212.438660      -70.906647
 H         -79.678421     -213.321503      -69.483788
 H         -78.813072     -214.380310      -70.684326
