20
 generated by VMD
 C         -48.000725     -136.438614      -46.047497
 N         -46.899734     -136.048965      -46.349182
 H         -50.929272     -135.560989      -45.775707
 H         -48.852413     -136.754410      -45.408409
 C         -51.549171     -136.310989      -45.305897
 C         -52.302696     -137.394135      -46.037483
 C         -51.771896     -136.119690      -43.896935
 C         -51.829559     -138.684479      -45.384598
 C         -51.433392     -137.575745      -43.222115
 C         -52.244343     -138.623749      -43.836811
 H         -52.004387     -137.507858      -47.155502
 H         -53.357334     -137.309784      -45.917721
 H         -51.169155     -135.380341      -43.427803
 H         -52.802773     -135.901474      -43.751217
 H         -50.810570     -139.019440      -45.654572
 H         -52.432812     -139.388229      -45.980392
 H         -51.502964     -137.508743      -42.049385
 H         -50.401615     -137.757263      -43.386761
 H         -51.976681     -139.610428      -43.465366
 H         -53.412155     -138.522461      -43.585808
