20
 generated by VMD
 C         -40.730087     -100.148445      -30.011333
 N         -40.669075     -100.314766      -28.846416
 H         -37.318600     -100.150635      -30.696383
 H         -40.917046      -99.963333      -31.033306
 C         -36.380009      -99.697609      -30.753382
 C         -35.974667      -99.610641      -32.247593
 C         -35.354008      -99.679924      -29.724594
 C         -34.960587      -98.500671      -32.550804
 C         -34.381004      -98.606911      -29.980186
 C         -33.833584      -98.534027      -31.483536
 H         -36.874092      -99.562386      -32.872364
 H         -35.534035     -100.581497      -32.563351
 H         -35.787067      -99.633965      -28.741625
 H         -34.853554     -100.639214      -29.768862
 H         -35.305447      -97.464584      -32.624165
 H         -34.509750      -98.751060      -33.538830
 H         -33.560940      -98.573006      -29.238703
 H         -34.814220      -97.647438      -29.803566
 H         -33.263119      -97.673119      -31.683943
 H         -33.131268      -99.429039      -31.683493
