20
 generated by VMD
 C         -69.895363     -183.289139      -65.322815
 N         -69.645355     -182.388977      -66.006912
 H         -68.059608     -184.920181      -62.911472
 H         -70.127975     -184.201355      -64.698174
 C         -67.808136     -184.157257      -62.194172
 C         -67.962616     -184.516998      -60.795948
 C         -68.013916     -182.717545      -62.672443
 C         -67.274605     -183.556549      -59.835506
 C         -67.125458     -181.866623      -61.793270
 C         -67.405319     -182.067413      -60.258976
 H         -67.726013     -185.489563      -60.451607
 H         -69.058037     -184.633926      -60.633457
 H         -67.578430     -182.578629      -63.772640
 H         -69.065430     -182.511169      -62.576462
 H         -66.176743     -183.788696      -59.881020
 H         -67.598534     -183.736816      -58.715801
 H         -67.262970     -180.769165      -61.865185
 H         -66.056938     -182.178253      -62.064384
 H         -66.616920     -181.349808      -59.953133
 H         -68.246620     -181.532791      -59.936634
