20
 generated by VMD
 C         -53.140701     -147.406067      -45.538353
 N         -54.254650     -147.464111      -45.270195
 H         -54.593220     -147.529510      -48.006302
 H         -52.146107     -147.494553      -45.889008
 C         -54.362698     -146.662842      -48.590332
 C         -53.237007     -146.524048      -49.560513
 C         -55.072277     -145.449234      -48.002514
 C         -53.491875     -145.305923      -50.338497
 C         -55.120094     -144.255402      -49.008057
 C         -53.882786     -144.039474      -49.703346
 H         -53.227482     -147.336304      -50.213421
 H         -52.291786     -146.465103      -48.961750
 H         -56.110249     -145.798523      -48.052807
 H         -54.821144     -145.114349      -46.909382
 H         -54.191391     -145.535919      -51.194839
 H         -52.494690     -145.118805      -50.783253
 H         -55.427776     -143.408997      -48.538200
 H         -55.884308     -144.412292      -49.780865
 H         -54.077240     -143.240051      -50.428139
 H         -53.076290     -143.807556      -49.007504
