20
 generated by VMD
 C         -12.554548      -28.081285       -5.511482
 N         -13.156562      -28.337339       -6.409931
 H         -11.892503      -31.730515       -4.573937
 H         -11.167789      -30.101227       -5.153150
 C         -10.993992      -31.090170       -4.599500
 C          -9.953397      -31.899822       -5.282723
 C         -10.640530      -30.772331       -3.168541
 C          -8.533539      -31.335503       -5.181239
 C          -9.376046      -29.999285       -3.174310
 C          -8.188325      -30.638346       -3.831002
 H         -10.123422      -31.831081       -6.400254
 H          -9.909026      -32.889355       -4.981431
 H         -11.379496      -30.149622       -2.738841
 H         -10.549615      -31.690243       -2.589674
 H          -8.542048      -30.572607       -5.906931
 H          -7.754291      -32.036224       -5.448855
 H          -9.106337      -29.745951       -2.147096
 H          -9.580412      -29.037052       -3.680128
 H          -7.374086      -29.959314       -4.073961
 H          -7.873355      -31.483479       -3.128900
