20
 generated by VMD
 C         -33.005409      -96.759895      -25.341644
 N         -32.764206      -96.336716      -24.282253
 H         -34.491802      -93.997032      -27.536917
 H         -33.247784      -97.071411      -26.443428
 C         -34.662811      -93.374054      -28.405966
 C         -36.048302      -93.509476      -29.031759
 C         -33.511978      -93.144005      -29.344261
 C         -36.198528      -92.639488      -30.348608
 C         -33.806755      -92.256271      -30.558578
 C         -35.042763      -92.649277      -31.288692
 H         -36.836140      -93.226044      -28.377518
 H         -36.193752      -94.570084      -29.344273
 H         -32.722210      -92.756378      -28.745277
 H         -33.211468      -94.138863      -29.690771
 H         -36.317924      -91.655334      -30.001966
 H         -37.124077      -93.028473      -30.756918
 H         -33.044994      -92.399582      -31.252283
 H         -33.690075      -91.136490      -30.403868
 H         -35.420296      -92.026848      -32.230259
 H         -35.000370      -93.721710      -31.555244
