20
 generated by VMD
 C         -10.380812      -35.725513       -8.127111
 N         -10.112143      -35.740376       -9.235320
 H         -13.521490      -37.065296       -6.812957
 H         -14.619651      -37.975277       -5.791493
 C         -14.067615      -38.044170       -6.695592
 C         -13.156023      -39.211090       -6.716685
 C         -15.002446      -37.998772       -7.925293
 C         -13.848073      -40.495300       -6.922150
 C         -15.779047      -39.341484       -7.972918
 C         -14.838810      -40.480331       -8.047255
 H         -12.558001      -39.209179       -5.801937
 H         -12.418239      -39.072102       -7.483194
 H         -15.769616      -37.194046       -7.954764
 H         -14.466720      -37.885220       -8.891133
 H         -14.396836      -40.791199       -5.947526
 H         -13.139072      -41.315388       -7.025240
 H         -16.463491      -39.392075       -8.880111
 H         -16.405828      -39.420517       -7.096765
 H         -15.390523      -41.462387       -8.104458
 H         -14.278341      -40.419689       -8.996089
