20
 generated by VMD
 C         -38.407085     -112.998970      -36.464458
 N         -37.279610     -112.970963      -36.262276
 H         -41.402290     -115.098000      -34.882607
 H         -39.471672     -113.270699      -36.491035
 C         -42.310608     -114.795273      -35.478294
 C         -42.128277     -114.592957      -36.966946
 C         -43.499706     -114.240311      -34.794037
 C         -43.353542     -115.042221      -37.601734
 C         -44.795185     -114.389694      -35.695110
 C         -44.579002     -114.248154      -37.143257
 H         -41.198795     -115.206169      -37.239532
 H         -41.907265     -113.527893      -36.991989
 H         -43.663376     -114.887848      -33.887409
 H         -43.362926     -113.189125      -34.620049
 H         -43.516422     -116.159485      -37.447742
 H         -43.252674     -114.929230      -38.687649
 H         -45.679035     -113.669960      -35.478817
 H         -44.979973     -115.511185      -35.433495
 H         -45.559952     -114.662346      -37.594421
 H         -44.554554     -113.162956      -37.431419
