20
 generated by VMD
 C         -38.722557     -113.609901      -35.825516
 N         -37.763363     -114.291206      -35.852966
 H         -41.283375     -114.728043      -35.607529
 H         -39.682690     -113.236229      -35.644825
 C         -42.226322     -114.568115      -36.094841
 C         -42.387737     -114.442902      -37.633434
 C         -43.480881     -114.223129      -35.290749
 C         -43.531872     -115.349152      -38.074097
 C         -44.633610     -115.118393      -35.712231
 C         -44.887974     -115.107681      -37.174603
 H         -41.510208     -114.874458      -38.098232
 H         -42.549301     -113.403877      -37.936249
 H         -43.235836     -114.491745      -34.283936
 H         -43.670486     -113.175095      -35.285084
 H         -43.294575     -116.410690      -37.990326
 H         -43.894970     -115.142845      -39.117352
 H         -45.552330     -114.757851      -35.301174
 H         -44.346832     -116.064255      -35.273121
 H         -45.537464     -115.910225      -37.518536
 H         -45.332249     -114.040977      -37.569027
