20
 generated by VMD
 C         -40.351982     -118.379898      -34.916855
 N         -39.422939     -117.685020      -35.040886
 H         -42.737148     -116.850151      -36.301876
 H         -41.072697     -119.214005      -34.739697
 C         -43.409176     -116.785446      -37.176373
 C         -42.870552     -117.077675      -38.557457
 C         -44.816589     -116.168282      -37.086811
 C         -43.851784     -117.813736      -39.465782
 C         -45.776783     -116.956787      -37.958874
 C         -45.288380     -117.175827      -39.378986
 H         -41.880730     -117.602074      -38.385609
 H         -42.549129     -116.070183      -39.000980
 H         -45.186417     -116.281876      -35.992508
 H         -44.856297     -115.117615      -37.273247
 H         -43.928635     -118.833069      -39.128044
 H         -43.332542     -117.907936      -40.393169
 H         -46.874252     -116.427223      -38.014431
 H         -45.870029     -118.001945      -37.556736
 H         -46.013874     -117.855057      -39.972767
 H         -45.172401     -116.227661      -39.989208
