20
 generated by VMD
 C         -27.149456      -72.827087      -17.876574
 N         -27.954611      -73.323738      -17.213621
 H         -25.020800      -70.241440      -18.743443
 H         -26.577587      -72.164040      -18.617889
 C         -25.115934      -70.605026      -19.731638
 C         -24.290102      -71.750725      -20.323683
 C         -25.533283      -69.577293      -20.675610
 C         -25.379854      -72.523003      -21.396708
 C         -26.502310      -70.171005      -21.663649
 C         -25.831717      -71.419632      -22.378963
 H         -23.990324      -72.672356      -19.635965
 H         -23.415676      -71.457085      -20.907457
 H         -25.935001      -68.622566      -20.173729
 H         -24.668842      -69.167847      -21.241177
 H         -26.192356      -72.832985      -20.746771
 H         -25.045412      -73.454201      -21.938881
 H         -26.708067      -69.311539      -22.376165
 H         -27.503765      -70.491234      -21.222723
 H         -26.536478      -71.800537      -23.042940
 H         -25.070440      -71.014030      -23.047028
