20
 generated by VMD
 C         -68.366127     -193.993881      -65.954155
 N         -67.929420     -194.600998      -65.098091
 H         -70.760704     -191.722504      -67.445786
 H         -68.836868     -193.359070      -66.691536
 C         -71.442383     -191.673553      -66.607391
 C         -72.295670     -190.424820      -66.503891
 C         -71.874535     -192.840897      -65.838150
 C         -73.761368     -190.610245      -66.211166
 C         -72.954147     -192.660797      -64.893600
 C         -74.130722     -191.976028      -65.519829
 H         -72.245247     -189.919174      -67.403275
 H         -71.969749     -189.678040      -65.759499
 H         -72.054543     -193.608093      -66.614571
 H         -70.977440     -193.360168      -65.426514
 H         -74.461861     -190.247330      -66.986710
 H         -74.050995     -189.843124      -65.508377
 H         -72.488365     -192.139160      -64.021645
 H         -73.277542     -193.591888      -64.490250
 H         -74.635666     -192.608887      -66.171661
 H         -74.883324     -191.730560      -64.604462
