20
 generated by VMD
 C         -70.324524     -182.735870      -65.729088
 N         -71.004242     -183.625137      -65.605194
 H         -67.863625     -181.960159      -63.018116
 H         -69.574432     -181.939941      -65.860840
 C         -67.400681     -181.855331      -62.083004
 C         -67.589142     -183.005692      -61.164875
 C         -67.025818     -180.537506      -61.560703
 C         -66.623657     -182.985550      -59.903965
 C         -65.966850     -180.585938      -60.518734
 C         -66.367584     -181.573120      -59.425617
 H         -67.382133     -183.982346      -61.625244
 H         -68.617615     -182.956268      -60.889637
 H         -66.677673     -180.025070      -62.483036
 H         -68.041885     -179.984711      -61.287579
 H         -65.755135     -183.520081      -60.294949
 H         -67.132553     -183.477631      -58.987667
 H         -65.772011     -179.684418      -59.952915
 H         -65.017204     -180.842651      -61.068348
 H         -65.704468     -181.634506      -58.606262
 H         -67.308784     -181.349915      -58.902718
