20
 generated by VMD
 C         -78.164688     -210.537552      -76.078560
 N         -77.108376     -210.955200      -76.325760
 H         -80.405228     -212.798294      -75.075974
 H         -79.176514     -210.118896      -75.801498
 C         -80.173386     -213.439087      -74.283051
 C         -78.806999     -213.410919      -73.628410
 C         -81.287354     -213.969788      -73.421486
 C         -78.748024     -213.251953      -72.107643
 C         -81.163620     -213.726105      -71.917450
 C         -79.821129     -214.068527      -71.353874
 H         -78.184418     -212.646912      -74.107765
 H         -78.328102     -214.343185      -73.918884
 H         -82.219009     -213.735245      -73.914276
 H         -81.261574     -215.091919      -73.567970
 H         -78.811195     -212.201218      -71.832962
 H         -77.926117     -213.773727      -71.732117
 H         -81.895866     -214.318146      -71.386780
 H         -81.326744     -212.685547      -71.706177
 H         -79.844032     -213.818985      -70.366463
 H         -79.558060     -215.125107      -71.533691
