20
 generated by VMD
 C         -38.690414     -111.377930      -36.479000
 N         -38.362648     -110.291122      -36.496002
 H         -40.185284     -113.945152      -35.103058
 H         -39.177917     -112.324188      -36.226524
 C         -41.106842     -113.538727      -35.362114
 C         -41.710930     -113.814171      -36.748371
 C         -41.789688     -112.486382      -34.432789
 C         -43.233150     -114.152763      -36.494011
 C         -43.258545     -112.906410      -34.330029
 C         -43.857986     -112.956108      -35.722366
 H         -41.181145     -114.580246      -37.247913
 H         -41.612797     -112.942024      -37.438984
 H         -41.330013     -112.678360      -33.413761
 H         -41.495216     -111.491127      -34.898525
 H         -43.107052     -114.924744      -35.719227
 H         -43.898441     -114.459732      -37.404583
 H         -43.729568     -112.190742      -33.637730
 H         -43.338264     -113.977165      -33.981918
 H         -45.008858     -113.125877      -35.654095
 H         -43.654095     -112.144623      -36.349155
