20
 generated by VMD
 C         -11.517670      -33.565102       -9.029214
 N         -10.452939      -33.224812       -8.811537
 H         -12.231742      -35.014866       -7.461808
 H         -12.832603      -35.056580       -5.744884
 C         -12.677807      -35.662243       -6.631244
 C         -11.607026      -36.790577       -6.442782
 C         -14.015514      -36.238132       -7.081734
 C         -12.130511      -37.824306       -5.352965
 C         -14.536022      -37.086700       -5.967143
 C         -13.556641      -38.223194       -5.611335
 H         -10.725226      -36.299171       -6.039327
 H         -11.356235      -37.328190       -7.396430
 H         -14.698268      -35.395920       -7.282926
 H         -13.922645      -36.813694       -7.987653
 H         -12.106704      -37.231133       -4.435225
 H         -11.415320      -38.659962       -5.367653
 H         -15.573634      -37.540340       -6.261897
 H         -14.727538      -36.461994       -5.118062
 H         -13.901628      -38.848553       -4.798143
 H         -13.671259      -38.903355       -6.506727
