20
 generated by VMD
 C         -30.381731      -74.166794      -20.822798
 N         -30.204493      -75.246696      -20.444466
 H         -27.464073      -74.550964      -19.459974
 H         -30.635376      -73.243011      -21.319624
 C         -26.558672      -74.461876      -20.064629
 C         -26.197878      -75.591782      -21.051867
 C         -26.014044      -73.176651      -20.374882
 C         -25.972342      -75.182701      -22.516424
 C         -25.817240      -72.833931      -21.904732
 C         -25.175730      -73.903824      -22.668203
 H         -27.017933      -76.412239      -20.866930
 H         -25.281204      -76.110237      -20.633528
 H         -26.572947      -72.332787      -19.979984
 H         -25.076242      -73.031334      -19.873310
 H         -26.929089      -74.930374      -23.008127
 H         -25.529314      -76.007965      -23.071720
 H         -25.184467      -71.919411      -21.908464
 H         -26.803308      -72.646172      -22.479649
 H         -25.118145      -73.559570      -23.733385
 H         -24.211214      -74.144829      -22.201189
