20
 generated by VMD
 C         -40.359787     -118.195641      -34.794773
 N         -39.423397     -117.541740      -35.050701
 H         -42.390419     -116.314705      -36.582355
 H         -41.063347     -118.906738      -34.529171
 C         -43.192265     -116.625473      -37.219719
 C         -42.840012     -116.982918      -38.655991
 C         -44.658333     -116.300133      -36.962097
 C         -43.996975     -117.736343      -39.405273
 C         -45.736099     -116.978081      -37.886806
 C         -45.317669     -116.989586      -39.335365
 H         -41.966549     -117.578041      -38.733395
 H         -42.624638     -116.115685      -39.203983
 H         -44.643291     -116.768509      -35.950115
 H         -44.693188     -115.158432      -36.929832
 H         -44.060844     -118.730186      -38.841198
 H         -43.740414     -118.097496      -40.502853
 H         -46.620560     -116.491440      -37.728874
 H         -45.903084     -118.032349      -37.640820
 H         -46.060429     -117.408218      -39.970703
 H         -45.291122     -115.916542      -39.794540
