20
 generated by VMD
 C          -9.305270      -24.592216        1.054781
 N          -9.837520      -25.358875        1.685250
 H          -6.880871      -23.383284       -0.721277
 H          -8.310447      -22.676811       -1.443660
 C          -7.337393      -23.067938       -1.665885
 C          -7.509792      -24.321659       -2.440995
 C          -6.601047      -21.955315       -2.411510
 C          -7.950624      -24.101936       -3.821670
 C          -7.058473      -21.730818       -3.873668
 C          -7.119172      -23.092653       -4.610032
 H          -8.176092      -25.069757       -1.818150
 H          -6.540254      -24.867989       -2.436423
 H          -6.691204      -20.982716       -1.888503
 H          -5.555550      -22.192251       -2.530764
 H          -8.983532      -23.777264       -3.801432
 H          -8.052646      -25.053547       -4.344443
 H          -6.441606      -21.007578       -4.420601
 H          -8.075988      -21.321091       -3.782783
 H          -7.555155      -23.027472       -5.615480
 H          -6.098256      -23.471733       -4.573451
