20
 generated by VMD
 C         -20.491243      -57.367649      -16.624514
 N         -19.972433      -56.359993      -16.487524
 H         -22.822981      -60.239494      -17.873941
 H         -21.200397      -58.126827      -16.873047
 C         -22.517115      -60.568748      -16.914946
 C         -23.236938      -60.082348      -15.751846
 C         -21.228756      -61.422466      -16.904100
 C         -22.514750      -60.339169      -14.399627
 C         -21.042929      -62.086082      -15.537870
 C         -21.842896      -61.665813      -14.286207
 H         -24.314110      -60.445286      -15.729611
 H         -23.281054      -59.008984      -15.795242
 H         -21.332279      -62.130821      -17.754934
 H         -20.382412      -60.853416      -17.264256
 H         -23.286375      -60.297993      -13.615288
 H         -21.755554      -59.596088      -14.299135
 H         -20.051098      -61.687687      -15.301999
 H         -20.915506      -63.163361      -15.720191
 H         -22.680059      -62.407246      -14.152526
 H         -21.270109      -61.805740      -13.371339
