20
 generated by VMD
 C         -10.328438      -25.192530       -0.759237
 N         -11.322268      -24.728048       -0.560513
 H          -6.572453      -25.560795       -0.880656
 H          -8.269181      -25.204365       -1.412162
 C          -7.187493      -25.203798       -1.698525
 C          -6.971103      -25.996265       -2.980672
 C          -6.961555      -23.638161       -2.027539
 C          -7.829920      -25.471863       -4.134070
 C          -7.865770      -23.102724       -3.153177
 C          -7.794803      -23.964268       -4.413881
 H          -7.092540      -27.062538       -2.843925
 H          -5.862740      -26.013645       -3.242853
 H          -7.089498      -23.049229       -1.075677
 H          -5.954132      -23.420465       -2.304824
 H          -8.887316      -25.745977       -3.801760
 H          -7.768987      -26.058130       -5.074165
 H          -7.604280      -22.063583       -3.314190
 H          -8.884282      -23.194607       -2.793751
 H          -8.625228      -23.671494       -5.098098
 H          -6.831952      -23.815823       -4.853184
