20
 generated by VMD
 C         -40.303562     -118.669525      -35.102551
 N         -39.466438     -117.880157      -35.024200
 H         -42.998047     -116.637146      -36.378639
 H         -41.273964     -119.101250      -35.260410
 C         -43.662926     -116.843636      -37.155102
 C         -42.904747     -117.202019      -38.350857
 C         -45.030994     -116.141930      -37.262955
 C         -43.743160     -117.953018      -39.341579
 C         -45.850334     -117.034355      -38.182629
 C         -45.137936     -117.322540      -39.472122
 H         -42.047180     -117.893776      -38.157028
 H         -42.551140     -116.331528      -38.969723
 H         -45.359936     -116.110054      -36.207848
 H         -44.924416     -115.176758      -37.625599
 H         -43.959496     -118.944435      -39.025585
 H         -43.243385     -117.962479      -40.316273
 H         -46.859177     -116.430954      -38.262913
 H         -46.234211     -117.977806      -37.790775
 H         -45.946629     -117.858276      -39.999615
 H         -45.086056     -116.338425      -39.901268
