20
 generated by VMD
 C         -27.861149      -81.706451      -26.646082
 N         -28.192801      -82.195351      -27.644407
 H         -30.488485      -83.662033      -26.114870
 H         -27.387737      -81.173477      -25.804193
 C         -31.075205      -84.413254      -25.468149
 C         -30.704176      -84.169083      -23.964096
 C         -31.798758      -85.722206      -25.866922
 C         -31.749182      -84.840370      -23.036230
 C         -32.842941      -86.080254      -24.834229
 C         -32.384628      -86.143021      -23.389090
 H         -30.696337      -83.086967      -23.550100
 H         -29.730936      -84.628235      -23.714388
 H         -32.369167      -85.724861      -26.788303
 H         -30.923334      -86.440071      -25.952349
 H         -32.455921      -83.986641      -22.707453
 H         -31.223801      -84.941246      -22.079491
 H         -33.220490      -87.046265      -24.936405
 H         -33.714737      -85.462616      -24.984407
 H         -33.124882      -86.338432      -22.714027
 H         -31.671785      -86.946121      -23.244604
