20
 generated by VMD
 C         -27.605272      -86.694618      -26.666277
 N         -28.337996      -85.825264      -26.581228
 H         -30.892527      -86.093620      -25.500359
 H         -26.844618      -87.410812      -26.768625
 C         -31.780846      -86.618652      -25.595379
 C         -32.741562      -86.934517      -24.404572
 C         -32.082642      -87.191162      -26.908739
 C         -34.184353      -87.512115      -24.915182
 C         -33.509830      -87.471039      -27.284019
 C         -34.223392      -88.203125      -26.223406
 H         -33.050552      -86.055229      -23.900511
 H         -32.222878      -87.670197      -23.759933
 H         -31.674345      -86.489784      -27.621002
 H         -31.427689      -88.108421      -26.915991
 H         -34.788143      -86.567566      -24.911745
 H         -34.656475      -88.090363      -24.045553
 H         -33.639008      -88.118874      -28.184418
 H         -34.025593      -86.600662      -27.525051
 H         -35.278645      -88.265579      -26.345545
 H         -33.781151      -89.222679      -26.199022
