20
 generated by VMD
 C         -50.140614     -144.968307      -44.568176
 N         -49.427582     -144.099121      -44.570763
 H         -52.591850     -142.535538      -45.734013
 H         -50.720867     -145.861740      -44.633839
 C         -53.127815     -142.475922      -46.694893
 C         -52.385105     -142.448578      -47.949131
 C         -54.597038     -141.754974      -46.654514
 C         -53.313450     -142.719238      -49.232128
 C         -55.425091     -142.053619      -47.850140
 C         -54.613361     -141.924820      -49.158352
 H         -51.406456     -143.039139      -47.994625
 H         -52.011143     -141.400879      -48.180252
 H         -55.085072     -142.088440      -45.745373
 H         -54.334259     -140.639023      -46.558357
 H         -53.687489     -143.713531      -49.263542
 H         -52.693882     -142.590347      -50.095142
 H         -56.265163     -141.333038      -47.907627
 H         -55.866726     -143.084076      -47.767704
 H         -55.196838     -142.205048      -50.062557
 H         -54.430714     -140.849030      -49.349655
