20
 generated by VMD
 C         -50.003998     -132.005844      -46.676586
 N         -49.994244     -132.524292      -47.663559
 H         -48.268955     -132.209381      -44.193161
 H         -49.929420     -131.278488      -45.928879
 C         -48.657955     -132.816360      -43.325821
 C         -49.555508     -133.920105      -43.822350
 C         -48.875511     -132.359039      -41.936634
 C         -49.411331     -135.120773      -42.956406
 C         -48.751312     -133.567810      -41.003109
 C         -49.575535     -134.786224      -41.425037
 H         -49.220337     -134.149002      -44.841446
 H         -50.514442     -133.438980      -43.922710
 H         -48.154774     -131.611465      -41.577564
 H         -49.926373     -131.811096      -41.905121
 H         -48.421852     -135.662231      -43.143234
 H         -50.243591     -135.849106      -43.137836
 H         -48.937778     -133.236877      -39.987167
 H         -47.791809     -133.962158      -40.913280
 H         -49.141293     -135.614395      -40.909782
 H         -50.665565     -134.753342      -41.100807
