20
 generated by VMD
 C         -27.720161      -86.679131      -26.773127
 N         -28.206728      -85.653442      -26.461842
 H         -30.807327      -86.050667      -25.511696
 H         -27.419928      -87.709465      -27.145870
 C         -31.837872      -86.552124      -25.639572
 C         -32.774693      -86.883774      -24.412693
 C         -32.015793      -87.180695      -26.991055
 C         -34.202972      -87.389145      -24.807976
 C         -33.465778      -87.391968      -27.229536
 C         -34.080513      -88.243370      -26.096779
 H         -33.014687      -86.005936      -23.778103
 H         -32.186592      -87.696175      -23.823294
 H         -31.523882      -86.487518      -27.710760
 H         -31.387468      -88.023048      -26.954456
 H         -34.865314      -86.468956      -25.063431
 H         -34.607025      -88.054031      -24.077381
 H         -33.693840      -87.932739      -28.157320
 H         -34.013561      -86.380005      -27.210323
 H         -35.150234      -88.582153      -26.171547
 H         -33.493191      -89.236847      -25.991207
