20
 generated by VMD
 C         -19.101282      -62.896351      -17.088793
 N         -20.220854      -62.737629      -16.888147
 H         -22.956467      -63.582958      -16.689428
 H         -18.046741      -63.017601      -17.595924
 C         -23.600855      -64.352486      -17.238935
 C         -24.018246      -64.045715      -18.679268
 C         -24.410006      -65.150055      -16.260077
 C         -24.621094      -65.373116      -19.260603
 C         -25.069912      -66.380394      -16.945929
 C         -25.598488      -66.018990      -18.341061
 H         -23.130070      -63.698353      -19.244064
 H         -24.827583      -63.348454      -18.456369
 H         -23.904140      -65.530716      -15.441765
 H         -25.092558      -64.417137      -15.867028
 H         -23.755081      -66.016586      -19.481602
 H         -25.098225      -65.168762      -20.255598
 H         -25.843922      -66.784424      -16.275991
 H         -24.365248      -67.209328      -17.177885
 H         -26.031889      -66.971893      -18.788183
 H         -26.533695      -65.405457      -18.268208
