20
 generated by VMD
 C         -41.078411     -104.159332      -35.840469
 N         -41.928513     -104.902504      -36.149567
 H         -38.308384     -103.854729      -33.284222
 H         -40.127743     -103.748978      -35.574108
 C         -38.120686     -104.919624      -33.000240
 C         -36.877243     -105.243050      -32.333149
 C         -39.204014     -105.935440      -33.091488
 C         -37.090576     -106.250038      -31.161297
 C         -39.256920     -107.098885      -32.067871
 C         -37.876793     -107.583313      -31.679377
 H         -36.515465     -104.196022      -31.974491
 H         -36.267685     -105.549309      -33.222652
 H         -40.216747     -105.457153      -32.927845
 H         -39.195686     -106.317291      -34.070091
 H         -37.722889     -105.799446      -30.444452
 H         -36.208130     -106.665695      -30.667734
 H         -40.054295     -107.912849      -32.346424
 H         -39.690804     -106.807983      -31.091911
 H         -37.944511     -108.207863      -30.830231
 H         -37.329391     -108.178886      -32.464840
