20
 generated by VMD
 C         -12.357999      -31.489096       -8.866726
 N         -12.439029      -30.660271       -8.147139
 H         -10.844813      -34.878540       -7.744053
 H         -11.894263      -33.910931       -6.665929
 C         -11.393668      -34.869705       -6.741531
 C         -10.361174      -34.745667       -5.559986
 C         -12.319544      -36.008938       -6.607026
 C         -11.100626      -34.611633       -4.220651
 C         -12.997063      -35.875751       -5.279557
 C         -12.183317      -35.641861       -4.052431
 H          -9.728065      -33.876335       -5.687881
 H          -9.724021      -35.631802       -5.441559
 H         -13.063455      -35.991779       -7.397637
 H         -11.866246      -37.005733       -6.675398
 H         -11.594455      -33.639595       -4.284559
 H         -10.512525      -34.465801       -3.330685
 H         -13.689722      -36.708645       -5.187191
 H         -13.611777      -35.005890       -5.408118
 H         -12.838835      -35.440029       -3.226512
 H         -11.608415      -36.593052       -3.806367
