20
 generated by VMD
 C         -11.953036      -25.554512       -0.753300
 N         -12.574748      -25.610237        0.184644
 H          -8.534389      -26.705994       -1.915172
 H          -9.352276      -25.755072       -3.198445
 C          -8.360413      -26.057014       -2.740976
 C          -7.380837      -26.846540       -3.623041
 C          -7.672484      -24.767523       -2.218581
 C          -7.086417      -26.019581       -4.860397
 C          -7.355445      -23.935150       -3.529380
 C          -6.451097      -24.721453       -4.495235
 H          -7.774602      -27.797941       -3.938849
 H          -6.488889      -27.164003       -2.983837
 H          -8.448304      -24.265362       -1.595452
 H          -6.840138      -24.983488       -1.545667
 H          -7.976050      -25.903427       -5.523822
 H          -6.384487      -26.602283       -5.512834
 H          -6.872786      -22.975761       -3.284237
 H          -8.318745      -23.686115       -4.006463
 H          -6.303772      -24.165539       -5.434103
 H          -5.433670      -24.837872       -4.119647
