20
 generated by VMD
 C         -59.767632     -171.899628      -55.229660
 N         -59.636124     -173.006165      -54.805626
 H         -63.216469     -170.225601      -56.083626
 H         -59.955948     -170.890564      -55.651745
 C         -63.531609     -169.336380      -56.676750
 C         -62.653282     -168.324463      -57.420925
 C         -65.070061     -169.449173      -57.101318
 C         -63.196728     -167.920227      -58.867775
 C         -65.357750     -168.950089      -58.517536
 C         -64.690041     -167.661819      -58.893700
 H         -61.638859     -168.599548      -57.548546
 H         -62.663872     -167.320694      -56.810120
 H         -65.389519     -170.510864      -56.965153
 H         -65.642471     -168.751053      -56.345669
 H         -62.872993     -168.665833      -59.582375
 H         -62.686169     -167.042557      -59.159580
 H         -66.405617     -168.620621      -58.595230
 H         -65.086548     -169.686020      -59.265110
 H         -64.982651     -167.288666      -59.872704
 H         -65.082268     -166.920288      -58.151611
