20
 generated by VMD
 C         -78.628960     -209.641541      -76.836868
 N         -77.726273     -210.026352      -77.441162
 H         -79.708488     -211.534119      -74.093918
 H         -79.488739     -209.273254      -76.265190
 C         -79.479774     -212.141159      -73.172897
 C         -78.067314     -212.311340      -72.723160
 C         -80.579292     -213.116959      -73.036308
 C         -78.261833     -212.747498      -71.163437
 C         -80.805267     -213.406036      -71.539581
 C         -79.407166     -213.695114      -70.877281
 H         -77.472404     -211.388794      -72.734749
 H         -77.569565     -213.119888      -73.326630
 H         -81.492477     -212.863892      -73.557213
 H         -80.270302     -214.024353      -73.564819
 H         -78.380005     -211.789566      -70.637383
 H         -77.354332     -213.149750      -70.750580
 H         -81.624641     -214.191605      -71.499329
 H         -81.302559     -212.616867      -71.116493
 H         -79.604370     -213.940704      -69.791344
 H         -79.071342     -214.726242      -71.146790
