20
 generated by VMD
 C         -12.449658      -27.613409       -4.621518
 N         -13.145600      -28.024597       -5.413367
 H         -10.939712      -30.665051       -2.828482
 H         -10.938019      -29.166437       -3.933478
 C         -10.315882      -29.890579       -3.433730
 C          -9.524564      -30.568052       -4.526487
 C          -9.296477      -29.254040       -2.425693
 C          -8.767380      -29.562012       -5.320515
 C          -8.385817      -28.273487       -3.152651
 C          -7.725081      -28.922535       -4.400927
 H         -10.194095      -31.121416       -5.284369
 H          -8.909114      -31.363836       -4.122377
 H          -9.796185      -28.779005       -1.621537
 H          -8.792955      -30.091068       -1.934283
 H          -9.481732      -28.788424       -5.727560
 H          -8.360693      -30.090860       -6.210740
 H          -7.528579      -27.828358       -2.590694
 H          -8.861953      -27.389343       -3.509100
 H          -7.151270      -28.207859       -4.935566
 H          -7.147967      -29.727859       -3.895328
