20
 generated by VMD
 C         -13.531420      -44.151695       -6.714831
 N         -13.754259      -43.941177       -5.652124
 H         -14.853042      -44.765785       -9.067342
 H         -14.394059      -43.751591      -10.472465
 C         -15.224047      -44.361515      -10.008740
 C         -16.420509      -43.470963       -9.741574
 C         -15.633330      -45.564335      -10.928638
 C         -16.940054      -42.920887      -11.054136
 C         -16.074492      -45.059120      -12.328476
 C         -17.155991      -44.036762      -12.098613
 H         -16.113625      -42.768932       -8.977320
 H         -17.269663      -44.011585       -9.324451
 H         -14.805706      -46.286293      -11.110716
 H         -16.489531      -46.093685      -10.487869
 H         -16.223213      -42.242325      -11.526281
 H         -17.837830      -42.329182      -10.916464
 H         -16.481838      -45.851822      -12.937475
 H         -15.160266      -44.654602      -12.854055
 H         -17.408392      -43.450970      -13.020822
 H         -18.070204      -44.628578      -11.778394
