20
 generated by VMD
 C         -59.925797     -156.865265      -56.440571
 N         -60.952740     -156.439011      -56.438396
 H         -59.929581     -157.444763      -53.152290
 H         -58.939671     -157.301254      -56.278553
 C         -58.927208     -157.900757      -52.795376
 C         -57.738461     -157.120163      -52.363995
 C         -58.881321     -159.302887      -52.415730
 C         -57.346569     -157.421600      -50.892063
 C         -58.376335     -159.695892      -51.082676
 C         -57.183952     -158.873352      -50.645420
 H         -57.971661     -156.030197      -52.477634
 H         -56.754658     -157.328659      -53.007889
 H         -59.908974     -159.622437      -52.719791
 H         -58.209827     -159.807251      -53.095512
 H         -58.057701     -156.911987      -50.148308
 H         -56.444164     -156.943192      -50.616028
 H         -58.209576     -160.797546      -50.951694
 H         -59.166977     -159.456406      -50.218098
 H         -56.870110     -159.031418      -49.562988
 H         -56.356464     -159.157486      -51.232563
