20
 generated by VMD
 C         -15.120157      -46.122795       -6.422823
 N         -14.713303      -47.122883       -6.104458
 H         -15.641019      -44.614536       -9.313216
 H         -14.573969      -44.771168      -10.673708
 C         -15.665621      -44.792038      -10.386474
 C         -16.468475      -43.676891      -11.035707
 C         -16.247913      -46.188580      -10.657631
 C         -16.606913      -43.919266      -12.531684
 C         -16.508265      -46.392502      -12.173229
 C         -17.285570      -45.216026      -12.827304
 H         -15.963415      -42.702824      -10.953084
 H         -17.487801      -43.453941      -10.624468
 H         -15.659195      -46.958023      -10.151536
 H         -17.266163      -46.279400      -10.200024
 H         -15.622666      -43.853065      -13.017441
 H         -17.144300      -43.036404      -12.944008
 H         -17.047821      -47.312664      -12.324217
 H         -15.487054      -46.543480      -12.736483
 H         -17.381063      -45.470215      -13.875468
 H         -18.292229      -45.178211      -12.293783
