20
 generated by VMD
 C         -80.365532     -205.565750      -71.926163
 N         -79.802994     -206.584015      -71.809158
 H         -77.148033     -203.658493      -70.675728
 H         -80.944283     -204.655823      -71.820564
 C         -76.359489     -204.277328      -71.096275
 C         -75.005966     -203.600372      -71.275452
 C         -76.191780     -205.761002      -70.680359
 C         -74.295189     -203.616257      -69.831146
 C         -75.478836     -205.811508      -69.304077
 C         -74.173569     -204.989944      -69.198265
 H         -75.232269     -202.638779      -71.687057
 H         -74.476158     -204.171616      -72.105949
 H         -77.173302     -206.126572      -70.522316
 H         -75.840660     -206.252121      -71.603439
 H         -74.928185     -203.059189      -69.077400
 H         -73.219841     -203.083984      -69.938866
 H         -75.256119     -206.813995      -69.144058
 H         -76.122795     -205.568192      -68.435951
 H         -73.962708     -204.838272      -68.126060
 H         -73.297844     -205.380341      -69.754044
