20
 generated by VMD
 C         -29.962679      -91.957481      -25.524010
 N         -29.131416      -92.267555      -24.818596
 H         -33.076744      -89.768234      -26.425066
 H         -30.729364      -91.663116      -26.325880
 C         -33.329414      -90.191368      -27.349283
 C         -34.099796      -91.529922      -27.312983
 C         -33.238926      -89.459709      -28.656729
 C         -35.479912      -91.058571      -27.623280
 C         -34.727551      -89.091919      -29.067495
 C         -35.527905      -90.333771      -29.031515
 H         -33.944870      -91.932999      -26.251059
 H         -33.608383      -92.131607      -28.131392
 H         -32.733780      -88.540558      -28.522587
 H         -32.674728      -90.051247      -29.362925
 H         -35.866035      -90.300957      -26.933214
 H         -36.265236      -91.773407      -27.747742
 H         -34.513420      -88.818298      -30.114607
 H         -35.148285      -88.262268      -28.465418
 H         -36.622829      -90.311981      -29.175211
 H         -35.063942      -90.995377      -29.814295
