20
 generated by VMD
 C         -58.512642     -152.101791      -49.237522
 N         -59.664227     -152.180649      -49.615879
 H         -55.820705     -150.039398      -47.824177
 H         -57.449078     -152.137848      -49.010876
 C         -55.249546     -149.806458      -48.786945
 C         -54.459972     -150.913757      -49.467884
 C         -54.963535     -148.334824      -49.096416
 C         -54.172035     -150.521271      -50.979073
 C         -54.791965     -147.979080      -50.537376
 C         -53.752792     -148.996399      -51.150158
 H         -55.096565     -151.812332      -49.449123
 H         -53.582581     -151.068359      -48.824631
 H         -55.798279     -147.651443      -48.636204
 H         -54.016342     -147.999817      -48.543301
 H         -55.121288     -150.665573      -51.567524
 H         -53.391869     -151.148041      -51.423138
 H         -54.509136     -146.937378      -50.784557
 H         -55.852974     -147.828339      -51.018806
 H         -53.543976     -148.786972      -52.206135
 H         -52.716961     -148.853577      -50.714867
