20
 generated by VMD
 C         -47.802109     -124.762894      -38.267559
 N         -47.152206     -125.631577      -38.749386
 H         -45.161148     -123.137596      -37.716942
 H         -48.381763     -123.935326      -37.819050
 C         -45.034405     -122.829102      -38.761078
 C         -43.886478     -123.505020      -39.460613
 C         -45.716156     -121.805824      -39.515987
 C         -44.257095     -124.055008      -40.820084
 C         -46.063957     -122.238533      -41.060555
 C         -44.939293     -122.914925      -41.716728
 H         -43.643429     -124.274818      -38.721027
 H         -43.057865     -122.894920      -39.579056
 H         -46.638290     -121.578339      -38.968510
 H         -45.129574     -120.868912      -39.587238
 H         -44.795635     -124.958130      -40.732567
 H         -43.364246     -124.187111      -41.309345
 H         -46.367016     -121.338348      -41.619385
 H         -46.911144     -122.865555      -40.818462
 H         -45.366158     -123.401176      -42.549805
 H         -44.205929     -122.219925      -42.103844
