20
 generated by VMD
 C         -70.570892     -182.083527      -63.821209
 N         -69.535683     -182.634888      -63.992027
 H         -68.788963     -180.606873      -61.765694
 H         -71.546928     -181.588776      -63.633453
 C         -67.833855     -180.550369      -61.285820
 C         -67.167252     -181.901550      -61.042179
 C         -67.322952     -179.374191      -60.616093
 C         -65.680420     -181.887390      -60.899578
 C         -65.772598     -179.377808      -60.828796
 C         -65.233917     -180.627533      -60.210476
 H         -67.433594     -182.413788      -61.971004
 H         -67.707169     -182.339600      -60.068100
 H         -67.747688     -178.609146      -61.213108
 H         -67.601082     -179.288269      -59.547226
 H         -65.203560     -182.137253      -61.796474
 H         -65.407669     -182.718201      -60.322247
 H         -65.402603     -178.469742      -60.311672
 H         -65.445770     -179.176590      -61.890285
 H         -64.165932     -180.534515      -60.173588
 H         -65.538841     -180.682251      -59.063980
