20
 generated by VMD
 C         -39.498661     -105.561623      -37.277992
 N         -40.479103     -105.031464      -37.006348
 H         -39.238476     -108.113487      -35.319042
 H         -38.546062     -106.122314      -37.308033
 C         -39.440887     -108.643738      -34.408260
 C         -38.384720     -108.455589      -33.329491
 C         -40.650734     -109.437843      -34.070015
 C         -38.860790     -108.386734      -31.934334
 C         -41.169117     -109.532242      -32.669437
 C         -39.869125     -109.635757      -31.666842
 H         -37.916859     -107.422310      -33.651134
 H         -37.580284     -109.187256      -33.553940
 H         -41.348839     -108.787529      -34.686474
 H         -40.725758     -110.451241      -34.399368
 H         -39.450016     -107.472626      -31.705530
 H         -38.022633     -108.414734      -31.163679
 H         -41.784954     -110.478394      -32.619846
 H         -41.772728     -108.592888      -32.569019
 H         -40.394875     -109.636772      -30.610508
 H         -39.379192     -110.602203      -31.817184
