20
 generated by VMD
 C         -50.152245     -144.992523      -44.584381
 N         -49.422165     -144.091461      -44.557762
 H         -52.598610     -142.594864      -45.759182
 H         -50.738346     -145.864792      -44.596844
 C         -53.141220     -142.487122      -46.686291
 C         -52.372120     -142.446091      -47.967201
 C         -54.620415     -141.769165      -46.666981
 C         -53.311012     -142.732254      -49.236866
 C         -55.400177     -142.038132      -47.840778
 C         -54.609612     -141.931534      -49.147198
 H         -51.455494     -143.070145      -48.017593
 H         -52.031021     -141.324005      -48.128551
 H         -55.172470     -142.080124      -45.734196
 H         -54.344795     -140.567978      -46.604427
 H         -53.655712     -143.854736      -49.277191
 H         -52.716427     -142.551193      -50.205826
 H         -56.253658     -141.357956      -47.872070
 H         -55.925819     -143.072708      -47.784508
 H         -55.223763     -142.280197      -50.061550
 H         -54.407379     -140.769379      -49.373936
