20
 generated by VMD
 C         -67.648857     -191.726364      -66.487289
 N         -66.728561     -191.646362      -67.239975
 H         -70.361626     -189.768707      -66.309715
 H         -68.313660     -191.766891      -65.676476
 C         -71.119186     -189.892487      -65.512253
 C         -71.976562     -191.062653      -65.756599
 C         -71.090546     -189.280029      -64.215797
 C         -73.331398     -191.105576      -64.988770
 C         -72.553017     -189.216217      -63.698059
 C         -73.070709     -190.622391      -63.558506
 H         -71.425728     -192.061462      -65.706078
 H         -72.200638     -191.054047      -66.795197
 H         -70.371483     -189.839401      -63.507252
 H         -70.562553     -188.345764      -64.206932
 H         -73.663200     -192.193283      -65.081230
 H         -73.984734     -190.379898      -65.498032
 H         -73.144386     -188.643616      -64.429726
 H         -72.333176     -188.737732      -62.694050
 H         -72.409363     -191.337921      -62.943027
 H         -73.869118     -190.592911      -62.928181
