20
 generated by VMD
 C         -50.829754     -129.263077      -44.961227
 N         -50.954849     -130.126663      -44.245483
 H         -48.976849     -128.275864      -41.706810
 H         -50.822227     -128.403473      -45.559074
 C         -48.111588     -128.681335      -41.237846
 C         -47.817749     -130.135651      -40.931786
 C         -47.140041     -127.579002      -40.866249
 C         -46.432701     -130.458984      -41.485767
 C         -45.754242     -128.025360      -41.345703
 C         -45.437824     -129.495895      -40.955070
 H         -48.490345     -130.942917      -41.429096
 H         -47.786613     -130.268723      -39.844494
 H         -47.358517     -126.660622      -41.358109
 H         -47.225819     -127.395912      -39.779671
 H         -46.512012     -130.218658      -42.554047
 H         -46.190514     -131.466187      -41.216106
 H         -44.909294     -127.558357      -40.898376
 H         -45.616943     -128.019180      -42.355793
 H         -44.445210     -129.689575      -41.419983
 H         -45.334518     -129.614365      -39.885941
