20
 generated by VMD
 C         -28.472668      -81.337921      -27.682070
 N         -29.526009      -80.909050      -27.423834
 H         -29.228655      -82.759560      -24.335661
 H         -27.413172      -81.822571      -27.666784
 C         -29.829128      -83.666023      -24.150669
 C         -29.983807      -83.783630      -22.727531
 C         -30.461756      -84.271957      -25.275434
 C         -31.483620      -84.168144      -22.426773
 C         -31.959251      -84.594460      -24.888151
 C         -32.104599      -85.137917      -23.417572
 H         -29.549509      -82.762367      -22.315548
 H         -29.271055      -84.504471      -22.383543
 H         -30.487532      -83.618645      -26.148464
 H         -29.946424      -85.210083      -25.521555
 H         -32.184212      -83.263969      -22.311260
 H         -31.550097      -84.496872      -21.373337
 H         -32.363701      -85.397758      -25.481564
 H         -32.616749      -83.728333      -24.971437
 H         -33.179283      -85.318642      -23.091936
 H         -31.543159      -86.090416      -23.250608
