20
 generated by VMD
 C         -60.706371     -153.970490      -51.309673
 N         -61.376106     -154.346024      -52.249622
 H         -57.557552     -153.733765      -52.607582
 H         -60.209404     -153.683212      -50.382988
 C         -56.773323     -153.468597      -51.905926
 C         -56.829361     -153.968521      -50.396183
 C         -55.701614     -152.500885      -52.305832
 C         -55.542557     -154.127411      -49.612980
 C         -54.435551     -152.838745      -51.573162
 C         -54.622402     -152.983734      -50.079082
 H         -57.417843     -154.828491      -50.557819
 H         -57.394978     -153.173935      -49.959816
 H         -55.406475     -152.646240      -53.414425
 H         -56.001801     -151.460831      -52.134178
 H         -55.229069     -155.196732      -49.845329
 H         -55.780910     -153.934311      -48.519661
 H         -53.592987     -152.086212      -51.652481
 H         -54.036114     -153.683945      -52.160664
 H         -53.716763     -153.363556      -49.652699
 H         -54.821171     -151.881577      -49.752163
