20
 generated by VMD
 C         -18.062065      -48.556728       -7.356516
 N         -18.153536      -48.511963       -6.245906
 H         -16.379557      -48.281731      -10.190332
 H         -16.093424      -49.075703      -11.723459
 C         -16.366451      -48.145805      -11.264731
 C         -15.305472      -47.097755      -11.709323
 C         -17.727959      -47.699955      -11.794287
 C         -15.326452      -46.545364      -13.143358
 C         -17.617207      -47.441002      -13.317964
 C         -16.732954      -46.210819      -13.660105
 H         -14.291305      -47.515701      -11.441003
 H         -15.323307      -46.237637      -11.019028
 H         -18.472370      -48.479309      -11.583045
 H         -18.115004      -46.797459      -11.259962
 H         -14.949132      -47.368107      -13.755599
 H         -14.648199      -45.713783      -13.294171
 H         -18.619007      -47.341026      -13.602302
 H         -17.117128      -48.280403      -13.831308
 H         -16.683779      -46.119610      -14.742702
 H         -17.093418      -45.313568      -13.186173
