20
 generated by VMD
 C         -67.521332     -180.051971      -58.317158
 N         -68.394676     -180.021408      -59.106819
 H         -67.334320     -176.571014      -59.721905
 H         -66.778145     -180.087341      -57.517319
 C         -66.370758     -176.151733      -60.182693
 C         -66.092499     -175.331238      -61.399857
 C         -65.150246     -176.750488      -59.349209
 C         -64.804100     -174.467972      -61.264668
 C         -64.033913     -175.766113      -59.190083
 C         -63.635876     -175.149902      -60.506161
 H         -66.819366     -174.517044      -61.595081
 H         -65.945335     -176.025467      -62.261841
 H         -65.604935     -176.990784      -58.417770
 H         -64.939484     -177.670959      -59.921635
 H         -65.078606     -173.646957      -60.575661
 H         -64.459221     -174.148697      -62.251331
 H         -63.151203     -176.390732      -58.811554
 H         -64.086075     -175.066483      -58.385593
 H         -62.960621     -174.303665      -60.291504
 H         -63.277668     -175.985138      -61.188675
