20
 generated by VMD
 C         -21.989834      -55.353657      -17.563425
 N         -21.376850      -55.819210      -18.425142
 H         -21.420170      -56.824860      -14.054318
 H         -22.603559      -55.095013      -16.630409
 C         -21.183529      -57.849236      -14.167084
 C         -21.383055      -58.774281      -12.970222
 C         -21.036011      -58.359749      -15.492768
 C         -20.857977      -60.170830      -13.285158
 C         -20.255800      -59.722858      -15.651937
 C         -19.734138      -60.345169      -14.325897
 H         -22.488466      -58.844910      -12.685558
 H         -20.819851      -58.410572      -12.086214
 H         -21.987976      -58.404194      -15.920898
 H         -20.531109      -57.638958      -16.142509
 H         -21.723455      -60.712643      -13.626527
 H         -20.635561      -60.722816      -12.399190
 H         -19.521418      -59.737934      -16.479204
 H         -21.051121      -60.396133      -16.040237
 H         -19.380724      -61.439754      -14.428627
 H         -18.851761      -59.770954      -13.929800
