20
 generated by VMD
 C         -12.393994      -27.028076       -2.685572
 N         -12.895977      -27.766237       -2.018766
 H         -10.573554      -26.677996       -4.240016
 H          -9.173548      -26.286692       -5.273216
 C          -9.478300      -26.755836       -4.347444
 C          -9.038539      -28.231962       -4.446050
 C          -8.824861      -26.128328       -3.159348
 C          -7.479905      -28.274080       -4.544960
 C          -7.309640      -26.178465       -3.197289
 C          -6.863032      -27.578976       -3.287580
 H          -9.418109      -28.742075       -5.420493
 H          -9.415438      -28.631180       -3.549845
 H          -9.096331      -25.079369       -3.041672
 H          -9.078655      -26.573215       -2.215886
 H          -7.207067      -27.667204       -5.446258
 H          -7.129521      -29.340591       -4.593093
 H          -6.898394      -25.739521       -2.254945
 H          -6.920141      -25.641371       -4.109395
 H          -5.762974      -27.581614       -3.372766
 H          -7.137325      -28.160368       -2.435096
