20
 generated by VMD
 C         -41.463757     -102.344894      -35.601082
 N         -41.514328     -103.480873      -35.868061
 H         -39.508694     -104.623917      -33.247166
 H         -41.306389     -101.350754      -35.329460
 C         -38.670830     -105.056282      -32.803379
 C         -37.248806     -104.502510      -32.883598
 C         -38.870495     -106.411957      -32.084705
 C         -36.381245     -104.772018      -31.607964
 C         -38.102203     -106.503914      -30.866882
 C         -36.697170     -106.157555      -31.019753
 H         -37.339027     -103.429596      -33.079491
 H         -36.715466     -104.962578      -33.689793
 H         -39.886322     -106.612000      -31.844801
 H         -38.557545     -107.268890      -32.813343
 H         -36.784500     -103.990105      -30.947609
 H         -35.293259     -104.718887      -31.762676
 H         -38.135559     -107.469986      -30.360838
 H         -38.581203     -105.834976      -30.195282
 H         -36.193924     -106.054993      -29.979738
 H         -36.154408     -106.926903      -31.528416
