20
 generated by VMD
 C         -21.483059      -52.411758      -11.403545
 N         -21.455229      -52.934364      -10.323851
 H         -19.872072      -50.850754      -13.602398
 H         -21.389048      -51.936352      -12.320518
 C         -18.841557      -50.978954      -13.441195
 C         -18.275068      -51.903286      -14.466355
 C         -18.196028      -50.670395      -12.117741
 C         -16.737198      -52.026134      -14.401598
 C         -16.673687      -50.491245      -12.323378
 C         -16.226025      -51.829060      -12.997908
 H         -18.572088      -51.643578      -15.517811
 H         -18.694637      -52.883286      -14.341990
 H         -18.652840      -49.732605      -11.748332
 H         -18.417114      -51.429104      -11.363160
 H         -16.352390      -51.211544      -15.041144
 H         -16.281483      -52.985931      -14.715883
 H         -16.233973      -50.483952      -11.227118
 H         -16.319201      -49.604298      -12.820641
 H         -15.100440      -51.854839      -12.971946
 H         -16.579159      -52.657280      -12.326739
