20
 generated by VMD
 C         -58.557266     -158.965012      -58.091949
 N         -58.980572     -159.471252      -57.200089
 H         -58.759594     -160.972382      -54.909081
 H         -58.131790     -158.442398      -58.899776
 C         -59.339390     -161.118759      -54.022106
 C         -58.641258     -161.330307      -52.741951
 C         -60.698055     -161.750671      -54.183083
 C         -59.659958     -161.336807      -51.500446
 C         -61.618687     -161.800385      -52.830032
 C         -60.824894     -162.314697      -51.659283
 H         -57.803429     -160.640640      -52.519249
 H         -58.185280     -162.305801      -52.946785
 H         -61.333672     -161.312469      -54.957069
 H         -60.496311     -162.701187      -54.565544
 H         -60.110592     -160.254333      -51.508461
 H         -59.054409     -161.710800      -50.703121
 H         -62.473400     -162.452682      -53.064468
 H         -62.129498     -160.833527      -52.653961
 H         -61.382782     -162.137375      -50.710236
 H         -60.301888     -163.218506      -51.849705
