20
 generated by VMD
 C         -58.498585     -152.107224      -49.353683
 N         -59.697086     -152.184509      -49.500469
 H         -55.620258     -150.007614      -47.758884
 H         -57.412479     -152.051056      -49.082836
 C         -55.237469     -149.782837      -48.728268
 C         -54.471874     -150.772598      -49.514442
 C         -54.873058     -148.317795      -49.018406
 C         -54.183552     -150.379761      -50.892170
 C         -54.746338     -148.006866      -50.595047
 C         -53.830391     -148.980682      -51.178616
 H         -54.828831     -151.806778      -49.327515
 H         -53.363846     -150.925156      -49.059250
 H         -55.713169     -147.681091      -48.674145
 H         -53.915798     -148.069336      -48.582108
 H         -55.010338     -150.661148      -51.542831
 H         -53.363953     -151.066025      -51.151711
 H         -54.313030     -147.064880      -50.674110
 H         -55.725674     -148.238617      -51.171383
 H         -53.728745     -148.842209      -52.285103
 H         -52.921051     -148.784592      -50.741989
