20
 generated by VMD
 C         -58.464279     -161.947495      -56.413971
 N         -57.368042     -161.734116      -56.488518
 H         -59.428658     -164.696869      -55.353630
 H         -59.494255     -162.234436      -56.350307
 C         -60.238922     -164.176926      -54.959690
 C         -60.334435     -163.844070      -53.488247
 C         -61.630489     -164.460663      -55.592743
 C         -61.227337     -162.625214      -53.087921
 C         -62.701622     -163.414261      -55.088055
 C         -62.617191     -163.117966      -53.550575
 H         -59.403053     -163.694092      -52.981647
 H         -60.709160     -164.668045      -53.042450
 H         -61.621655     -164.194382      -56.696224
 H         -62.016178     -165.472031      -55.454990
 H         -60.866474     -161.814896      -53.629227
 H         -61.218632     -162.539032      -51.990284
 H         -63.794399     -163.896164      -55.222160
 H         -62.870026     -162.502106      -55.646900
 H         -63.386120     -162.429764      -53.237675
 H         -62.812370     -164.145172      -53.148911
