20
 generated by VMD
 C         -60.676861     -153.350204      -51.982796
 N         -61.388550     -154.270004      -51.635857
 H         -57.565536     -153.786224      -52.003914
 H         -60.003098     -152.594803      -52.431492
 C         -56.835899     -153.328690      -51.347424
 C         -56.373512     -153.909897      -49.987480
 C         -56.083313     -152.203461      -51.966785
 C         -54.898720     -153.788589      -49.631653
 C         -54.598080     -152.361816      -51.717640
 C         -54.252640     -152.553772      -50.197475
 H         -56.778637     -154.977234      -49.748692
 H         -56.982399     -153.222305      -49.327477
 H         -56.299671     -152.164261      -53.068977
 H         -56.477581     -151.207306      -51.629238
 H         -54.285378     -154.692596      -49.967709
 H         -54.787041     -153.984726      -48.554592
 H         -54.115547     -151.435974      -52.263378
 H         -54.143585     -153.319138      -52.154591
 H         -53.201084     -152.611221      -50.226379
 H         -54.429482     -151.669327      -49.439064
