20
 generated by VMD
 C         -22.312647      -67.543678      -16.086891
 N         -21.195757      -67.282692      -16.138577
 H         -24.241777      -65.178017      -18.390478
 H         -23.398254      -67.731331      -16.403877
 C         -24.446371      -66.222137      -18.592485
 C         -23.819977      -66.735489      -19.938677
 C         -25.920528      -66.461960      -18.374817
 C         -24.460560      -68.119713      -20.398441
 C         -26.502777      -67.837799      -18.807957
 C         -26.013191      -68.063438      -20.202961
 H         -22.668785      -66.819618      -19.750219
 H         -23.750698      -65.916214      -20.643950
 H         -26.088377      -66.225662      -17.298132
 H         -26.510361      -65.677925      -18.906473
 H         -24.111391      -68.906601      -19.780285
 H         -24.226402      -68.379028      -21.414610
 H         -27.601732      -67.899590      -18.805050
 H         -26.065594      -68.511909      -18.079674
 H         -26.390253      -69.033257      -20.554539
 H         -26.269398      -67.224060      -20.869013
