20
 generated by VMD
 C         -70.159218     -181.374405      -62.730457
 N         -71.065125     -180.734680      -63.158615
 H         -67.246620     -181.752197      -61.049637
 H         -69.376320     -181.953201      -62.257034
 C         -66.646553     -180.889069      -60.661221
 C         -65.156525     -181.131775      -60.463444
 C         -67.311287     -179.538422      -60.557568
 C         -64.333107     -179.863586      -60.707691
 C         -66.418648     -178.410233      -61.012844
 C         -65.042625     -178.521545      -60.284100
 H         -64.770607     -181.987823      -61.050739
 H         -65.065475     -181.482010      -59.421661
 H         -68.291046     -179.326920      -61.197197
 H         -67.613380     -179.282043      -59.497936
 H         -64.059303     -179.544891      -61.745148
 H         -63.349613     -180.027145      -60.093258
 H         -66.878380     -177.427917      -60.841496
 H         -66.380104     -178.416428      -62.102962
 H         -64.525902     -177.470810      -60.495090
 H         -65.342949     -178.558105      -59.248356
