20
 generated by VMD
 C         -66.038040     -177.837814      -56.910488
 N         -66.869728     -177.078171      -57.154171
 H         -64.242699     -175.596436      -58.437134
 H         -65.285278     -178.552582      -56.552380
 C         -64.377258     -174.843292      -59.194210
 C         -65.578529     -173.947021      -59.197735
 C         -63.454075     -174.452148      -60.295090
 C         -65.220413     -172.477814      -59.004539
 C         -63.172852     -173.014832      -60.428352
 C         -64.348839     -172.024307      -60.195766
 H         -66.313896     -174.220200      -58.479591
 H         -66.003212     -174.062119      -60.257271
 H         -62.511032     -175.005280      -60.180939
 H         -63.999172     -174.803619      -61.201008
 H         -64.629448     -172.426727      -58.097324
 H         -66.058258     -171.820389      -58.856613
 H         -62.641712     -172.996414      -61.394711
 H         -62.529499     -172.673187      -59.625347
 H         -63.789577     -171.004288      -60.063656
 H         -64.902718     -171.965622      -61.108425
