20
 generated by VMD
 C         -10.831059      -37.542213       -7.257442
 N         -11.551966      -37.459126       -8.082817
 H         -12.505503      -40.079739       -8.172752
 H         -13.780974      -39.860317       -6.941132
 C         -13.571172      -40.231960       -7.969506
 C         -13.915961      -41.685944       -8.009851
 C         -14.325890      -39.470924       -9.034212
 C         -15.422968      -41.799660       -7.741015
 C         -15.861855      -39.703724       -9.042155
 C         -16.202511      -41.142681       -8.813179
 H         -13.415381      -42.260197       -7.219564
 H         -13.817345      -42.108677       -9.022688
 H         -14.123273      -38.394047       -8.849425
 H         -13.970470      -39.798832      -10.014797
 H         -15.681194      -41.279697       -6.776763
 H         -15.627674      -42.867783       -7.718378
 H         -16.208311      -39.337086      -10.078287
 H         -16.300529      -39.061970       -8.334373
 H         -17.252634      -41.263218       -8.589046
 H         -16.001701      -41.750160       -9.673762
