20
 generated by VMD
 C         -69.233734     -180.341202      -60.544083
 N         -69.403580     -181.465942      -60.393326
 H         -67.317131     -177.516037      -59.441097
 H         -69.106758     -179.299805      -60.731201
 C         -66.337555     -177.279602      -59.892281
 C         -65.942505     -177.390503      -61.351391
 C         -65.211494     -177.179733      -58.884083
 C         -64.930908     -176.288712      -61.660706
 C         -64.336296     -175.988541      -59.229305
 C         -63.837124     -176.191116      -60.543861
 H         -66.823395     -177.488510      -62.041847
 H         -65.308205     -178.305496      -61.389790
 H         -65.684738     -177.027283      -57.848961
 H         -64.679222     -178.121017      -58.841534
 H         -65.376266     -175.328735      -61.954956
 H         -64.449669     -176.488739      -62.586529
 H         -63.435600     -176.009354      -58.558678
 H         -64.794495     -174.982254      -58.994411
 H         -63.111645     -175.385483      -60.843155
 H         -63.367653     -177.166199      -60.703587
