20
 generated by VMD
 C         -67.695419     -191.729843      -66.614029
 N         -66.679688     -191.868958      -67.156761
 H         -70.563034     -189.370148      -66.374344
 H         -68.714783     -191.556549      -66.302605
 C         -71.174202     -189.803589      -65.557343
 C         -71.948250     -191.103897      -65.862053
 C         -71.130569     -189.319519      -64.106461
 C         -73.248138     -191.208755      -65.072762
 C         -72.591301     -189.250351      -63.601040
 C         -73.148079     -190.628174      -63.621090
 H         -71.324852     -192.019119      -65.651909
 H         -72.111183     -191.281387      -66.879341
 H         -70.456543     -189.984406      -63.461323
 H         -70.584518     -188.418976      -63.954849
 H         -73.443443     -192.347458      -64.968819
 H         -74.003532     -190.665482      -65.677917
 H         -73.093971     -188.657684      -64.403229
 H         -72.543404     -188.756104      -62.537479
 H         -72.543053     -191.150116      -62.807899
 H         -74.083710     -190.752991      -63.202065
