20
 generated by VMD
 C         -47.679817     -138.097046      -45.885395
 N         -47.246033     -137.836380      -46.872299
 H         -50.331520     -137.603760      -44.608566
 H         -48.020409     -138.094543      -44.860615
 C         -51.269444     -138.137909      -44.761944
 C         -51.378662     -138.721878      -46.217823
 C         -52.523037     -137.718475      -44.161102
 C         -52.557888     -139.717911      -46.347324
 C         -53.624100     -138.890121      -44.263203
 C         -53.865379     -139.328583      -45.660057
 H         -50.520988     -139.236984      -46.532146
 H         -51.660915     -137.863922      -46.860992
 H         -52.305973     -137.565506      -43.076271
 H         -52.911423     -136.824127      -44.663574
 H         -52.129593     -140.528824      -45.874165
 H         -52.800587     -140.020111      -47.346001
 H         -54.622482     -138.494278      -43.810059
 H         -53.244312     -139.722641      -43.675003
 H         -54.540325     -140.183029      -45.727840
 H         -54.370621     -138.575317      -46.217205
