20
 generated by VMD
 C         -21.669289      -52.433769      -11.330297
 N         -21.516821      -52.962574      -10.285104
 H         -19.831533      -50.379696      -13.907824
 H         -21.752516      -52.002342      -12.158205
 C         -18.875763      -50.920502      -13.724234
 C         -18.151108      -52.052124      -14.429618
 C         -18.384417      -50.785568      -12.327793
 C         -16.609852      -51.882999      -14.458180
 C         -16.814865      -50.930107      -12.166785
 C         -16.101267      -51.978420      -13.020796
 H         -18.462664      -52.033005      -15.478375
 H         -18.463184      -53.081474      -14.105407
 H         -18.761374      -49.754337      -11.970490
 H         -18.873060      -51.556156      -11.727693
 H         -16.326393      -50.890553      -14.819634
 H         -16.278275      -52.690346      -15.132390
 H         -16.569378      -51.160908      -11.170507
 H         -16.369410      -49.962811      -12.395008
 H         -15.038952      -51.822144      -12.953198
 H         -16.361965      -52.930523      -12.620847
