20
 generated by VMD
 C         -19.947350      -60.722633      -17.005548
 N         -19.332150      -59.966980      -17.625097
 H         -23.705093      -60.462170      -16.607599
 H         -20.684433      -61.292236      -16.624393
 C         -23.396164      -61.483727      -16.574572
 C         -23.227034      -62.326309      -17.901678
 C         -23.280567      -62.016872      -15.218271
 C         -23.352207      -63.860199      -17.720106
 C         -23.126204      -63.472488      -15.315570
 C         -23.952129      -64.216087      -16.360163
 H         -22.352703      -61.998333      -18.445124
 H         -24.040852      -61.936527      -18.430624
 H         -22.426353      -61.648441      -14.752230
 H         -24.163351      -61.741879      -14.683460
 H         -22.380564      -64.353462      -17.613306
 H         -23.927708      -64.336090      -18.572268
 H         -23.327772      -63.820736      -14.262980
 H         -22.072588      -63.628727      -15.655596
 H         -23.746708      -65.299973      -16.264137
 H         -25.011173      -63.978863      -16.214918
