20
 generated by VMD
 C         -50.823433     -129.189484      -44.907497
 N         -50.951668     -130.188492      -44.235180
 H         -49.009106     -128.468842      -41.627884
 H         -50.689175     -128.359222      -45.614403
 C         -48.033012     -128.679352      -41.249500
 C         -47.818390     -130.113342      -40.947109
 C         -47.108749     -127.574066      -40.849361
 C         -46.469685     -130.444885      -41.478062
 C         -45.776493     -128.025894      -41.342297
 C         -45.413654     -129.444443      -40.969345
 H         -48.599640     -130.593109      -41.398510
 H         -48.043758     -130.284286      -39.854168
 H         -47.388760     -126.570633      -41.411102
 H         -47.192394     -127.483658      -39.814529
 H         -46.622570     -130.436676      -42.556843
 H         -46.093536     -131.423508      -41.181583
 H         -44.981964     -127.352478      -40.848930
 H         -45.748501     -127.663902      -42.469963
 H         -44.408157     -129.728928      -41.316525
 H         -45.266899     -129.628723      -39.911446
