20
 generated by VMD
 C         -20.191673      -57.289268      -16.758331
 N         -19.178978      -57.317936      -17.340122
 H         -22.435452      -59.788246      -17.587183
 H         -21.330568      -57.237831      -16.468927
 C         -22.462515      -60.389702      -16.672037
 C         -23.773497      -61.010262      -16.267590
 C         -21.188440      -60.857544      -16.257528
 C         -23.739136      -61.930241      -15.020162
 C         -21.202433      -62.181831      -15.434682
 C         -22.375559      -62.477688      -14.544920
 H         -24.351002      -61.488426      -17.084669
 H         -24.436804      -60.117619      -15.959160
 H         -20.640249      -61.071682      -17.179581
 H         -20.622446      -60.085487      -15.725018
 H         -24.363012      -62.789017      -15.246873
 H         -24.138006      -61.368561      -14.153205
 H         -20.367849      -62.030327      -14.756314
 H         -20.958389      -63.098198      -16.001286
 H         -22.498993      -63.524170      -14.402620
 H         -22.253632      -62.046394      -13.542732
