20
 generated by VMD
 C         -52.981857     -146.832458      -45.063175
 N         -52.176933     -147.204880      -44.371964
 H         -55.012878     -146.692703      -48.036892
 H         -53.752037     -146.477478      -45.685143
 C         -54.438019     -145.835983      -48.271965
 C         -53.152195     -145.687241      -49.136791
 C         -55.095470     -144.608139      -47.830509
 C         -53.309055     -144.720093      -50.417332
 C         -55.289680     -143.571777      -49.029381
 C         -53.997902     -143.378189      -49.849667
 H         -52.706886     -146.561295      -49.513546
 H         -52.442684     -145.092056      -48.480442
 H         -56.026215     -144.886032      -47.347855
 H         -54.545582     -144.054321      -47.001965
 H         -54.003368     -145.142426      -51.067986
 H         -52.425335     -144.464432      -50.827374
 H         -55.597790     -142.657730      -48.654682
 H         -56.137272     -143.986725      -49.648102
 H         -54.224068     -142.761978      -50.714279
 H         -53.248940     -142.748978      -49.305283
