20
 generated by VMD
 C         -38.204830     -107.983101      -36.879112
 N         -38.371777     -108.470444      -37.901718
 H         -40.913628     -108.622704      -35.172588
 H         -38.303566     -107.532822      -35.882668
 C         -41.177036     -109.586014      -34.874035
 C         -40.309669     -110.866776      -35.119701
 C         -42.553307     -109.806946      -33.998604
 C         -40.120892     -111.691566      -33.902237
 C         -42.223995     -110.674240      -32.780552
 C         -41.399582     -111.907021      -33.081184
 H         -39.364017     -110.420792      -35.406860
 H         -40.808731     -111.321838      -35.942177
 H         -42.887691     -108.850830      -33.622211
 H         -43.479626     -110.121544      -34.587372
 H         -39.422581     -111.040176      -33.223484
 H         -39.710098     -112.653374      -33.966679
 H         -43.068409     -110.860199      -32.207069
 H         -41.576889     -110.185188      -32.120747
 H         -41.216496     -112.397247      -32.156002
 H         -42.064808     -112.622948      -33.766922
