20
 generated by VMD
 C         -49.296314     -132.625534      -46.928986
 N         -50.180157     -131.871765      -47.116169
 H         -47.602585     -134.315063      -44.270599
 H         -48.718018     -133.534378      -46.909950
 C         -48.492386     -134.531128      -43.683769
 C         -49.058640     -135.897995      -43.824306
 C         -49.357067     -133.503845      -43.058510
 C         -49.957756     -136.352509      -42.647472
 C         -50.158630     -134.003433      -41.879139
 C         -50.929920     -135.291229      -42.222767
 H         -48.331783     -136.629105      -44.042355
 H         -49.717464     -135.833206      -44.745644
 H         -48.690525     -132.756104      -42.575405
 H         -49.983845     -132.884155      -43.858051
 H         -49.156071     -136.558975      -41.941013
 H         -50.449078     -137.248825      -43.077606
 H         -50.705769     -133.136002      -41.526558
 H         -49.548965     -134.265884      -41.087444
 H         -51.599911     -135.642609      -41.490433
 H         -51.686966     -135.188736      -43.071762
