20
 generated by VMD
 C         -38.499626     -109.415726      -36.384048
 N         -37.483589     -108.914192      -36.263420
 H         -41.992374     -110.172585      -36.785652
 H         -39.425529     -110.038704      -36.564270
 C         -42.204449     -110.722588      -35.842426
 C         -41.728008     -112.136421      -35.910179
 C         -42.694973     -110.403778      -34.531307
 C         -40.831676     -112.594231      -34.851006
 C         -41.708649     -110.700546      -33.448387
 C         -41.535385     -112.206276      -33.472851
 H         -41.188641     -112.323624      -36.877480
 H         -42.629543     -112.809280      -36.075974
 H         -42.808208     -109.251060      -34.546230
 H         -43.687332     -110.922729      -34.291206
 H         -39.873447     -112.051727      -34.908371
 H         -40.552170     -113.645279      -34.852654
 H         -42.261459     -110.433250      -32.465359
 H         -40.751469     -110.065025      -33.552982
 H         -40.949970     -112.611603      -32.705647
 H         -42.537918     -112.744156      -33.619247
