20
 generated by VMD
 C         -11.699445      -41.419052       -6.642339
 N         -11.214157      -42.355854       -6.324387
 H         -14.648550      -42.192207       -8.269261
 H         -15.042681      -41.206573       -9.463933
 C         -15.229818      -42.235569       -9.174929
 C         -16.710070      -42.481548       -8.874615
 C         -14.772250      -43.304268      -10.151811
 C         -17.618040      -42.547848      -10.137518
 C         -15.605289      -43.210663      -11.452835
 C         -17.100199      -43.526917      -11.232786
 H         -17.056059      -41.696507       -8.222553
 H         -16.739662      -43.481373       -8.435956
 H         -13.733994      -43.227596      -10.357360
 H         -14.946753      -44.278408       -9.669862
 H         -17.699181      -41.537842      -10.514965
 H         -18.632307      -42.883499       -9.881935
 H         -15.184422      -44.011047      -12.174390
 H         -15.451715      -42.311516      -12.003712
 H         -17.590649      -43.522079      -12.228034
 H         -17.255384      -44.570648      -10.855791
