20
 generated by VMD
 C         -58.337410     -159.115372      -57.794254
 N         -59.368530     -158.477554      -57.683777
 H         -59.204094     -159.914154      -54.628265
 H         -57.398148     -159.645981      -57.836769
 C         -59.511673     -160.532532      -53.806328
 C         -58.544567     -160.814880      -52.627773
 C         -60.726559     -161.456909      -53.945847
 C         -59.186245     -160.910736      -51.291897
 C         -61.301865     -161.823502      -52.612938
 C         -60.324158     -162.065536      -51.468185
 H         -57.829838     -159.963974      -52.718189
 H         -57.897285     -161.727158      -52.804615
 H         -61.416698     -160.934875      -54.484833
 H         -60.565971     -162.459641      -54.351101
 H         -59.674522     -160.019791      -51.090721
 H         -58.389702     -161.156067      -50.536228
 H         -61.928288     -162.719696      -52.739826
 H         -61.921299     -160.973984      -52.344032
 H         -60.866856     -162.106461      -50.490044
 H         -59.802845     -163.042465      -51.567577
