20
 generated by VMD
 C         -40.560959     -100.189049      -30.306240
 N         -41.306580     -100.509239      -29.489220
 H         -37.066006     -101.184479      -30.753468
 H         -39.833046     -100.167038      -31.072332
 C         -36.416306     -100.335533      -30.834270
 C         -36.180435     -100.020432      -32.283245
 C         -35.322590     -100.213562      -29.933605
 C         -35.260151      -98.877663      -32.344788
 C         -34.425529      -99.003769      -30.046764
 C         -33.995064      -98.935905      -31.551355
 H         -37.127506      -99.796280      -32.735317
 H         -35.739689     -100.815323      -32.915520
 H         -35.744717     -100.120049      -28.982996
 H         -34.674736     -101.120506      -29.877218
 H         -35.705662      -97.869476      -32.095222
 H         -34.959911      -98.912048      -33.378822
 H         -33.631359      -99.145012      -29.299917
 H         -34.893925      -98.003777      -29.656187
 H         -33.268158      -98.087296      -31.756207
 H         -33.329823      -99.766243      -31.722319
