20
 generated by VMD
 C         -58.564228     -158.935059      -58.122635
 N         -58.955448     -159.537888      -57.199448
 H         -58.793015     -160.933517      -54.878349
 H         -58.258083     -158.358322      -58.999485
 C         -59.371738     -161.130432      -54.019814
 C         -58.637939     -161.377701      -52.712585
 C         -60.744370     -161.810974      -54.136581
 C         -59.545246     -161.400284      -51.521198
 C         -61.676411     -161.825760      -52.977127
 C         -60.872406     -162.306488      -51.682602
 H         -58.018391     -160.473480      -52.663620
 H         -58.014599     -162.289383      -52.580494
 H         -61.172787     -161.294586      -55.024113
 H         -60.589687     -162.796066      -54.326847
 H         -59.897072     -160.309143      -51.186390
 H         -59.068253     -161.516403      -50.573189
 H         -62.609638     -162.399597      -53.126747
 H         -61.882744     -160.758636      -52.749599
 H         -61.591557     -162.292206      -50.805828
 H         -60.794292     -163.375824      -51.714733
