20
 generated by VMD
 C         -20.167074      -56.693569      -16.899269
 N         -20.980980      -56.441124      -16.133444
 H         -22.468466      -59.692886      -17.720926
 H         -19.500031      -56.919399      -17.763731
 C         -22.143806      -60.169048      -16.776011
 C         -22.700327      -59.584164      -15.512784
 C         -21.876257      -61.676262      -16.697975
 C         -21.845398      -59.801628      -14.240940
 C         -20.917727      -61.944023      -15.586815
 C         -21.359766      -61.316395      -14.218909
 H         -23.695517      -60.046650      -15.372725
 H         -22.936287      -58.531399      -15.646701
 H         -22.856483      -62.144978      -16.388828
 H         -21.671083      -62.248367      -17.606634
 H         -22.497446      -59.563255      -13.349792
 H         -20.888294      -59.231598      -14.291016
 H         -20.057665      -61.351784      -15.861116
 H         -20.603647      -62.973999      -15.577244
 H         -22.208929      -61.960762      -13.912005
 H         -20.600182      -61.497826      -13.479649
