20
 generated by VMD
 C         -25.037464      -70.960587      -16.865629
 N         -25.247040      -70.882195      -15.727233
 H         -23.864132      -68.087090      -19.079456
 H         -25.067026      -70.914345      -17.909266
 C         -24.482811      -68.894890      -19.450241
 C         -23.841640      -69.588539      -20.593950
 C         -25.858152      -68.357010      -19.781359
 C         -24.896542      -70.522758      -21.312248
 C         -26.780201      -69.230278      -20.490599
 C         -26.148310      -69.732506      -21.713848
 H         -22.977062      -70.112434      -20.073549
 H         -23.327799      -68.844765      -21.387178
 H         -26.425148      -68.169563      -18.875385
 H         -25.765337      -67.410652      -20.289169
 H         -25.328127      -71.248863      -20.561674
 H         -24.468731      -71.027946      -22.172134
 H         -27.612991      -68.592522      -20.876534
 H         -27.304598      -69.921982      -19.824318
 H         -26.748924      -70.416534      -22.261951
 H         -25.888763      -69.044525      -22.479063
