20
 generated by VMD
 C         -69.713783     -180.987930      -61.234936
 N         -69.173889     -180.378799      -62.041130
 H         -66.756279     -179.827408      -59.386612
 H         -70.302551     -181.486450      -60.511932
 C         -66.238075     -179.027344      -59.785065
 C         -65.552689     -179.199753      -61.075378
 C         -65.773613     -177.823608      -58.877419
 C         -65.318764     -177.852982      -61.737362
 C         -65.437424     -176.569107      -59.578785
 C         -64.515717     -176.968201      -60.733860
 H         -66.163872     -179.770187      -61.772293
 H         -64.517136     -179.486664      -60.983879
 H         -66.561691     -177.737076      -58.119545
 H         -64.826599     -178.124313      -58.329735
 H         -66.119743     -177.460251      -62.319614
 H         -64.662437     -178.034912      -62.597275
 H         -64.999054     -175.826370      -58.900524
 H         -66.264786     -176.084152      -60.103344
 H         -64.241425     -176.153442      -61.399921
 H         -63.546661     -177.531845      -60.386383
