20
 generated by VMD
 C         -70.021942     -182.932892      -65.954811
 N         -71.125671     -183.249146      -65.660423
 H         -68.168556     -182.720474      -63.010677
 H         -69.032928     -182.690536      -66.250282
 C         -67.439880     -182.570724      -62.220493
 C         -67.674881     -183.462219      -61.001694
 C         -67.143394     -181.031387      -61.967869
 C         -66.658859     -183.090225      -59.780743
 C         -66.251297     -180.913803      -60.706329
 C         -66.761330     -181.631500      -59.463482
 H         -67.539467     -184.517471      -61.289982
 H         -68.535187     -183.201355      -60.500301
 H         -66.497704     -180.668076      -62.837456
 H         -68.041328     -180.541458      -61.902027
 H         -65.526917     -183.390915      -59.998554
 H         -66.967896     -183.871933      -59.092438
 H         -66.179573     -179.860062      -60.472183
 H         -65.223953     -181.258698      -60.780304
 H         -66.111275     -181.491394      -58.554676
 H         -67.794205     -181.421524      -59.302094
