20
 generated by VMD
 C         -22.195965      -67.335251      -16.310444
 N         -21.085957      -67.024529      -16.144051
 H         -23.739296      -65.538635      -17.735407
 H         -23.223215      -67.555206      -16.610474
 C         -24.389587      -66.090881      -18.462069
 C         -23.896578      -66.468361      -19.907846
 C         -25.805353      -66.323257      -18.261110
 C         -24.426794      -67.847275      -20.247692
 C         -26.403305      -67.653664      -18.732882
 C         -25.962837      -68.140266      -20.039289
 H         -22.787868      -66.570457      -19.744913
 H         -24.207798      -65.737312      -20.561472
 H         -26.006586      -66.199020      -17.196547
 H         -26.463135      -65.577263      -18.757538
 H         -23.895128      -68.558548      -19.653492
 H         -24.161999      -68.012329      -21.275137
 H         -27.470228      -67.719040      -18.788065
 H         -26.101883      -68.354477      -17.989311
 H         -26.182234      -69.223541      -20.174513
 H         -26.628342      -67.741806      -20.897667
