20
 generated by VMD
 C         -50.654625     -127.693970      -40.832874
 N         -51.301304     -128.338974      -41.587807
 H         -47.427494     -127.839287      -41.231346
 H         -49.958652     -127.130554      -40.209778
 C         -46.630634     -127.055176      -41.008846
 C         -45.521755     -127.508591      -40.074345
 C         -46.814110     -125.578102      -41.223537
 C         -44.201756     -126.975418      -40.686527
 C         -45.494976     -125.100296      -41.849915
 C         -44.251610     -125.436874      -41.058201
 H         -45.421581     -128.608795      -39.964478
 H         -45.769714     -127.166229      -38.960613
 H         -47.613220     -125.464638      -42.089951
 H         -47.086136     -125.173203      -40.296814
 H         -43.996418     -127.488556      -41.619213
 H         -43.395248     -127.336021      -40.044056
 H         -45.598343     -124.039139      -42.000504
 H         -45.514240     -125.578682      -42.858856
 H         -43.392796     -125.103569      -41.656311
 H         -44.309616     -124.856018      -40.113052
