20
 generated by VMD
 C         -29.933943      -79.299408      -25.928255
 N         -30.862658      -78.644897      -26.027687
 H         -29.326857      -82.676704      -25.679548
 H         -29.073177      -79.936874      -26.221018
 C         -29.032465      -82.920029      -24.635063
 C         -28.354336      -81.966400      -23.730204
 C         -29.867666      -83.979820      -24.009689
 C         -29.330217      -81.306557      -22.774651
 C         -30.930651      -83.321518      -23.283073
 C         -30.307156      -82.415321      -22.281488
 H         -27.775702      -81.144646      -24.275105
 H         -27.564552      -82.557503      -23.272465
 H         -30.280077      -84.628922      -24.821939
 H         -29.314739      -84.685150      -23.353659
 H         -29.826216      -80.572502      -23.317137
 H         -28.919950      -80.804718      -21.801125
 H         -31.602560      -83.964333      -22.641220
 H         -31.539026      -82.758522      -23.971699
 H         -31.043791      -81.792900      -21.720083
 H         -29.833960      -82.967766      -21.452108
