20
 generated by VMD
 C         -63.159481     -173.249359      -55.672195
 N         -63.064312     -173.980392      -54.804451
 H         -61.689548     -171.876358      -58.254932
 H         -63.150661     -172.604370      -56.543175
 C         -62.546799     -171.168564      -58.365856
 C         -62.503906     -169.657898      -57.953197
 C         -63.774944     -171.641525      -59.119476
 C         -63.768459     -168.861343      -58.424950
 C         -64.802933     -170.636963      -59.420109
 C         -65.050728     -169.572388      -58.422474
 H         -61.659630     -169.230820      -58.339520
 H         -62.421680     -169.737701      -56.780102
 H         -63.390011     -171.936920      -60.076664
 H         -64.095200     -172.361252      -58.464142
 H         -63.579620     -168.483856      -59.502041
 H         -63.829853     -167.949020      -57.761181
 H         -65.721397     -171.165497      -59.400234
 H         -64.629303     -170.227295      -60.370026
 H         -65.959999     -168.913788      -58.686165
 H         -65.248848     -170.093491      -57.517723
