20
 generated by VMD
 C         -56.266045     -150.044693      -46.745728
 N         -56.991688     -150.475067      -45.962387
 H         -53.523224     -147.881912      -47.659668
 H         -55.571766     -149.797089      -47.500610
 C         -53.805012     -147.469986      -48.583332
 C         -52.982548     -147.896942      -49.777035
 C         -54.438049     -146.211166      -48.644131
 C         -53.901081     -147.715546      -51.049744
 C         -55.395523     -146.091904      -49.825668
 C         -54.575062     -146.288879      -51.093468
 H         -52.817696     -148.961349      -49.549412
 H         -52.098427     -147.300156      -49.859219
 H         -55.148048     -146.142288      -47.811558
 H         -53.725842     -145.375854      -48.723522
 H         -54.628677     -148.564026      -51.053040
 H         -53.308529     -147.815063      -51.929623
 H         -55.887299     -145.210648      -49.919624
 H         -56.129818     -146.997238      -49.669472
 H         -55.225368     -146.367905      -51.966042
 H         -53.847858     -145.492447      -51.141720
