20
 generated by VMD
 C         -27.710159      -84.561592      -26.140013
 N         -28.263243      -84.975792      -27.058575
 H         -31.367294      -84.639946      -26.057989
 H         -27.165653      -84.262718      -25.327997
 C         -31.771132      -85.601875      -25.790884
 C         -31.906893      -85.854843      -24.383572
 C         -32.056175      -86.578674      -26.797617
 C         -33.215614      -86.500397      -24.119623
 C         -33.373108      -87.345215      -26.595722
 C         -33.461880      -87.756851      -25.040173
 H         -31.806686      -84.864326      -23.777500
 H         -31.100224      -86.520538      -23.869740
 H         -32.138309      -85.897148      -27.652912
 H         -31.140528      -87.152451      -26.935244
 H         -34.070320      -85.789108      -24.240360
 H         -33.345287      -86.811913      -23.108259
 H         -33.539379      -88.221016      -27.193228
 H         -34.237396      -86.628365      -26.801081
 H         -34.478714      -88.186592      -24.875641
 H         -32.663612      -88.521393      -24.894169
