20
 generated by VMD
 C         -59.865185     -157.550690      -56.216068
 N         -60.453186     -157.426651      -57.180492
 H         -60.093220     -157.290955      -52.667824
 H         -59.277901     -157.767563      -55.363819
 C         -59.248070     -157.952408      -52.526058
 C         -57.945301     -157.414505      -52.136986
 C         -59.407551     -159.337769      -52.935738
 C         -57.460262     -158.354172      -50.874638
 C         -59.038406     -160.244690      -51.759434
 C         -57.593632     -159.920578      -51.143398
 H         -58.035305     -156.456314      -51.769993
 H         -57.258198     -157.478958      -53.010597
 H         -60.405487     -159.718918      -53.246590
 H         -58.804623     -159.448929      -53.831066
 H         -58.159168     -158.132462      -50.024937
 H         -56.459549     -158.171204      -50.720562
 H         -59.160488     -161.288589      -51.932438
 H         -59.743046     -159.886795      -51.032471
 H         -57.412262     -160.540726      -50.195679
 H         -56.829849     -160.154129      -51.774223
