20
 generated by VMD
 C         -66.791924     -190.042419      -66.843849
 N         -67.582466     -190.144684      -66.012901
 H         -70.420113     -190.815369      -66.362846
 H         -65.894318     -190.081161      -67.477318
 C         -71.133766     -190.469223      -65.590263
 C         -72.396729     -191.032410      -65.170776
 C         -70.501671     -189.518326      -64.659431
 C         -73.265549     -190.369736      -64.120499
 C         -71.511917     -188.499741      -63.996876
 C         -72.440125     -189.326935      -63.127094
 H         -72.213249     -192.002945      -64.709236
 H         -72.969528     -191.376404      -66.059616
 H         -70.043877     -190.081116      -63.824562
 H         -69.742172     -188.949722      -65.188370
 H         -73.779289     -191.178055      -63.494148
 H         -74.001930     -189.794357      -64.657585
 H         -72.066154     -187.955109      -64.712463
 H         -70.897179     -187.887161      -63.293694
 H         -71.971100     -190.023392      -62.455616
 H         -72.975349     -188.663483      -62.506405
