20
 generated by VMD
 C         -69.715233     -196.437210      -65.266403
 N         -68.607079     -196.616287      -65.391525
 H         -72.291924     -194.023529      -65.075134
 H         -70.761871     -196.059647      -65.130486
 C         -72.229485     -193.883636      -66.181999
 C         -72.276321     -192.422211      -66.563599
 C         -72.916710     -194.911484      -67.024849
 C         -73.716217     -191.999954      -66.637688
 C         -74.365700     -194.373016      -67.323662
 C         -74.484131     -192.875717      -67.680779
 H         -71.635010     -192.298813      -67.463409
 H         -71.726357     -191.778641      -65.828056
 H         -72.341019     -195.020096      -67.992714
 H         -72.769371     -195.887177      -66.459198
 H         -73.817024     -190.953705      -66.906158
 H         -74.258125     -192.127823      -65.686935
 H         -74.996338     -194.596527      -66.429260
 H         -74.725578     -194.986954      -68.134216
 H         -74.059151     -192.692352      -68.590538
 H         -75.621178     -192.586136      -67.819229
