20
 generated by VMD
 C         -69.008339     -181.119080      -61.242092
 N         -69.932930     -180.613647      -60.742100
 H         -67.205795     -178.601654      -59.429714
 H         -68.085449     -181.496506      -61.747543
 C         -66.345673     -177.964630      -59.837990
 C         -65.771660     -178.208420      -61.177513
 C         -65.398201     -177.520432      -58.829090
 C         -65.028549     -176.998413      -61.713913
 C         -64.763062     -176.191742      -59.328201
 C         -64.053398     -176.364655      -60.746677
 H         -66.647125     -178.551315      -61.754158
 H         -65.184731     -179.132889      -60.999672
 H         -65.908104     -177.236206      -57.932442
 H         -64.617989     -178.212524      -58.596615
 H         -65.691589     -176.268616      -61.828987
 H         -64.480873     -177.288101      -62.603004
 H         -64.119965     -175.758301      -58.557377
 H         -65.484459     -175.412064      -59.606831
 H         -63.995193     -175.354813      -61.109238
 H         -63.107235     -176.763046      -60.593124
