20
 generated by VMD
 C         -20.033600      -61.885250      -17.729212
 N         -19.720455      -61.682095      -16.625973
 H         -21.953922      -65.011742      -16.711918
 H         -20.056215      -61.999348      -18.879389
 C         -22.962643      -65.048859      -17.060938
 C         -23.162151      -64.289986      -18.318085
 C         -24.100775      -65.298874      -16.069517
 C         -24.434422      -64.767998      -18.946955
 C         -25.315096      -65.842499      -16.757874
 C         -25.685129      -64.979095      -17.993511
 H         -22.334503      -64.572792      -18.979599
 H         -23.024731      -63.159100      -18.136345
 H         -23.809933      -65.768967      -15.178080
 H         -24.513365      -64.372437      -15.605310
 H         -24.306274      -65.832077      -19.282494
 H         -24.704142      -64.130791      -19.807810
 H         -26.220428      -65.719765      -16.117430
 H         -25.147844      -66.904854      -17.060923
 H         -26.347240      -65.685844      -18.477312
 H         -26.247150      -64.025169      -17.622303
