20
 generated by VMD
 C         -31.774368      -76.506516      -24.633499
 N         -31.799591      -76.915817      -25.755466
 H         -29.386730      -77.207771      -22.511635
 H         -31.454353      -76.140846      -23.717890
 C         -28.545580      -77.800262      -22.211439
 C         -27.533308      -78.063538      -23.252794
 C         -28.621548      -78.617279      -21.035387
 C         -26.134119      -78.321899      -22.674156
 C         -27.230612      -79.026131      -20.473970
 C         -26.206024      -79.350471      -21.550688
 H         -27.448318      -77.223274      -23.965773
 H         -27.895407      -78.951279      -23.737621
 H         -29.251736      -78.104904      -20.320759
 H         -29.244116      -79.385933      -21.375389
 H         -25.855337      -77.355316      -22.283216
 H         -25.409117      -78.641457      -23.388876
 H         -27.268827      -79.858238      -19.856836
 H         -26.846540      -78.232353      -19.923599
 H         -25.150862      -79.550034      -21.128477
 H         -26.392057      -80.324471      -22.029297
