20
 generated by VMD
 C         -59.166111     -158.778641      -57.331135
 N         -58.704620     -158.153488      -58.268513
 H         -59.877831     -159.035980      -54.068127
 H         -59.517979     -159.283707      -56.438225
 C         -59.626472     -159.961105      -53.541824
 C         -58.413498     -160.180374      -52.650089
 C         -60.626289     -161.131241      -53.627758
 C         -58.965015     -160.622757      -51.237484
 C         -60.975716     -161.726944      -52.257427
 C         -59.808453     -161.996780      -51.343357
 H         -57.801411     -159.218719      -52.642696
 H         -57.613899     -161.004944      -52.813118
 H         -61.446178     -160.691742      -54.260555
 H         -60.178581     -161.931305      -54.103512
 H         -59.608173     -159.792526      -51.014923
 H         -58.048363     -160.693176      -50.665642
 H         -61.595001     -162.576126      -52.391647
 H         -61.590137     -161.074554      -51.677269
 H         -60.124027     -162.226120      -50.296879
 H         -59.091972     -162.772964      -51.864147
