20
 generated by VMD
 C         -13.419459      -45.114624       -5.970408
 N         -14.338886      -44.617691       -6.326953
 H         -15.055159      -44.432182       -8.985653
 H         -14.362323      -43.924782      -10.497029
 C         -15.268703      -44.307945      -10.084990
 C         -16.481638      -43.364094      -10.222118
 C         -15.626266      -45.659908      -10.708633
 C         -16.978395      -43.129410      -11.647436
 C         -16.218006      -45.477745      -12.112756
 C         -17.300451      -44.430775      -12.313102
 H         -16.245382      -42.405281       -9.720940
 H         -17.290329      -43.700207       -9.617988
 H         -14.816016      -46.345772      -10.575257
 H         -16.418472      -46.059052      -10.099353
 H         -16.255642      -42.559727      -12.270122
 H         -17.911800      -42.538822      -11.608664
 H         -16.706802      -46.421726      -12.476895
 H         -15.459862      -45.345356      -12.808640
 H         -17.512888      -44.349686      -13.411151
 H         -18.190512      -44.798439      -11.787619
