20
 generated by VMD
 C         -38.589825     -111.296989      -36.390656
 N         -38.321835     -110.163277      -36.491459
 H         -40.223736     -113.990784      -35.202114
 H         -38.687183     -112.332100      -36.514687
 C         -41.077480     -113.464630      -35.452450
 C         -41.766998     -113.821098      -36.670990
 C         -41.748020     -112.431786      -34.564449
 C         -43.257656     -114.108864      -36.434151
 C         -43.201717     -112.840874      -34.239803
 C         -43.911182     -113.051964      -35.622116
 H         -41.362774     -114.651260      -37.176003
 H         -41.567638     -112.988869      -37.392662
 H         -40.974937     -112.375404      -33.762074
 H         -41.670013     -111.519241      -35.213707
 H         -43.341396     -115.107201      -35.949886
 H         -43.728912     -113.906883      -37.427238
 H         -43.662010     -111.946411      -33.766907
 H         -43.373428     -113.807907      -33.659233
 H         -44.971901     -113.387436      -35.317245
 H         -43.966953     -112.142975      -36.187912
