20
 generated by VMD
 C         -62.528515     -173.918427      -55.340584
 N         -63.677769     -174.146088      -55.111206
 H         -62.532337     -172.484894      -57.848602
 H         -61.487324     -173.612320      -55.430851
 C         -63.085190     -171.660736      -58.275173
 C         -62.886646     -170.242813      -57.630527
 C         -64.038345     -171.915512      -59.388184
 C         -63.776093     -169.119125      -58.322044
 C         -64.612350     -170.702484      -60.031586
 C         -65.043991     -169.577560      -59.055843
 H         -61.735996     -169.857956      -57.737247
 H         -63.115757     -170.222839      -56.623119
 H         -63.623333     -172.669342      -60.143555
 H         -64.950722     -172.524139      -59.074074
 H         -63.129951     -168.580444      -58.969513
 H         -64.152710     -168.507782      -57.533726
 H         -65.550644     -170.960480      -60.541649
 H         -63.861450     -170.300842      -60.758526
 H         -65.590485     -168.748825      -59.495403
 H         -65.748589     -170.115921      -58.297062
