20
 generated by VMD
 C         -21.235243      -52.166039       -9.866164
 N         -21.437086      -52.918427      -10.755752
 H         -19.659473      -50.242596      -12.395230
 H         -21.141777      -51.137768       -9.221158
 C         -18.619661      -50.267757      -12.686291
 C         -18.143484      -51.589417      -13.322620
 C         -17.573328      -49.404659      -12.177623
 C         -16.773830      -51.705486      -14.096079
 C         -16.347462      -49.337193      -13.146757
 C         -15.810440      -50.744183      -13.460568
 H         -18.972206      -52.024525      -13.885113
 H         -18.080561      -52.329651      -12.456719
 H         -17.903612      -48.335850      -12.177051
 H         -17.314289      -49.688530      -11.174002
 H         -16.995127      -51.428799      -15.131429
 H         -16.387661      -52.740440      -14.017364
 H         -15.608218      -48.724201      -12.564022
 H         -16.529093      -48.834160      -14.040805
 H         -14.973726      -50.713406      -14.156427
 H         -15.361205      -51.185097      -12.569317
