20
 generated by VMD
 C         -52.985584     -146.832809      -45.115662
 N         -52.188541     -147.235504      -44.319492
 H         -54.986790     -146.821716      -48.403358
 H         -53.717106     -146.318741      -45.788967
 C         -54.438553     -145.878647      -48.279312
 C         -53.163048     -145.671783      -49.197884
 C         -55.121403     -144.587234      -47.844563
 C         -53.338291     -144.702347      -50.315014
 C         -55.275078     -143.602371      -49.059143
 C         -53.988728     -143.424255      -49.837914
 H         -52.799778     -146.707214      -49.543236
 H         -52.401791     -145.249985      -48.551258
 H         -56.123058     -144.906311      -47.454716
 H         -54.405334     -144.117416      -46.994995
 H         -54.134052     -145.059418      -51.067577
 H         -52.260460     -144.637497      -50.804031
 H         -55.604843     -142.636475      -48.541092
 H         -56.121922     -143.891418      -49.762432
 H         -54.273136     -142.878098      -50.774471
 H         -53.206936     -142.755341      -49.349850
