20
 generated by VMD
 C          -1.965362      -13.695838        0.854151
 N          -1.720889      -12.932719        1.626890
 H          -3.511841      -17.095482        1.473453
 H          -3.987171      -16.795502       -0.131166
 C          -4.415306      -16.891775        0.862995
 C          -5.140368      -15.636168        1.301373
 C          -5.439692      -18.042152        0.964268
 C          -6.402721      -15.332742        0.436413
 C          -6.671607      -17.811123        0.114315
 C          -7.325372      -16.492331        0.318094
 H          -4.479231      -14.815538        1.155815
 H          -5.474730      -15.726641        2.368669
 H          -4.914054      -19.058531        0.767946
 H          -5.655779      -18.166538        2.076246
 H          -5.938485      -15.108559       -0.576757
 H          -6.858578      -14.393929        0.854070
 H          -7.428734      -18.599812        0.301831
 H          -6.339151      -17.939375       -0.954978
 H          -8.134939      -16.311827       -0.410028
 H          -7.744328      -16.597408        1.315017
