20
 generated by VMD
 C         -67.954781     -192.826630      -66.377701
 N         -68.731323     -192.964691      -67.257378
 H         -69.928131     -189.791061      -65.321808
 H         -67.081146     -192.777893      -65.804008
 C         -70.887009     -190.229477      -65.183220
 C         -71.610107     -190.865494      -66.372116
 C         -71.602982     -190.221222      -63.924278
 C         -72.433983     -192.040985      -65.839523
 C         -73.092567     -190.365051      -64.018150
 C         -73.645134     -191.487411      -64.856415
 H         -70.791405     -191.308624      -66.993912
 H         -72.275917     -190.223999      -66.890205
 H         -71.337624     -191.163712      -63.326229
 H         -71.456268     -189.283249      -63.438496
 H         -71.848587     -192.887650      -65.275063
 H         -72.817398     -192.673813      -66.695335
 H         -73.530907     -189.465134      -64.324585
 H         -73.511581     -190.626663      -63.027142
 H         -73.976959     -192.354187      -64.283218
 H         -74.510735     -191.212585      -65.528358
