20
 generated by VMD
 C         -10.781773      -33.052094       -8.706852
 N         -10.902400      -33.990116       -9.345691
 H         -12.937024      -33.998535       -6.303499
 H         -13.160357      -34.997173       -4.849236
 C         -12.988075      -35.039684       -5.922895
 C         -11.643800      -35.734001       -6.173130
 C         -14.191454      -35.827663       -6.386175
 C         -11.768802      -37.173107       -5.544782
 C         -14.211255      -37.201290       -5.773964
 C         -12.954981      -37.986946       -6.097082
 H         -10.841446      -35.223461       -5.687399
 H         -11.408596      -35.863373       -7.229185
 H         -15.128449      -35.234024       -6.232545
 H         -14.133219      -36.006226       -7.451211
 H         -11.935225      -37.081871       -4.435135
 H         -10.891811      -37.764610       -5.783084
 H         -15.009091      -37.778957       -6.302138
 H         -14.383640      -37.193726       -4.748672
 H         -12.913297      -38.943501       -5.607183
 H         -12.879834      -38.186138       -7.190521
