20
 generated by VMD
 C          -9.740635      -24.811117        0.572164
 N         -10.537837      -25.281469       -0.044959
 H          -6.163047      -24.219534       -0.967082
 H          -7.894006      -23.852879       -1.069318
 C          -6.998995      -23.979958       -1.635336
 C          -7.245343      -25.109447       -2.515108
 C          -6.688094      -22.628542       -2.381763
 C          -8.047826      -24.875301       -3.706537
 C          -7.545811      -22.383984       -3.602659
 C          -7.690323      -23.602982       -4.482091
 H          -7.658497      -25.855215       -1.895248
 H          -6.318397      -25.617268       -2.903101
 H          -6.707527      -21.744278       -1.745955
 H          -5.608617      -22.686531       -2.699243
 H          -9.065793      -24.768541       -3.402369
 H          -8.023775      -25.756998       -4.324440
 H          -7.104872      -21.551062       -4.161374
 H          -8.504171      -22.026789       -3.242147
 H          -8.285552      -23.401342       -5.387937
 H          -6.678483      -23.820913       -4.920699
