20
 generated by VMD
 C         -60.717857     -155.479538      -54.701153
 N         -61.106930     -156.499252      -54.271610
 H         -59.219105     -155.030380      -51.771698
 H         -60.205978     -154.533310      -54.957684
 C         -58.178524     -155.312866      -51.569321
 C         -57.549343     -154.548187      -50.393368
 C         -57.258450     -156.065216      -52.585003
 C         -56.288155     -155.224991      -49.742008
 C         -56.118084     -156.663071      -51.860336
 C         -55.316738     -155.780777      -50.942688
 H         -58.241131     -154.504974      -49.619034
 H         -57.226124     -153.561035      -50.805073
 H         -57.810696     -156.812057      -53.136452
 H         -57.003773     -155.174789      -53.268154
 H         -56.565266     -156.146866      -49.144520
 H         -55.901550     -154.561890      -49.026314
 H         -55.614166     -157.162827      -52.580845
 H         -56.473209     -157.460556      -51.168327
 H         -54.548100     -156.383102      -50.425350
 H         -54.801392     -154.979279      -51.536865
