20
 generated by VMD
 C          -7.025060      -23.385036        2.206688
 N          -7.208365      -22.375507        1.753585
 H          -8.368395      -23.396387       -0.931863
 H          -9.305271      -22.512861       -2.173868
 C          -8.290551      -22.640995       -1.801720
 C          -7.454030      -23.373478       -2.839992
 C          -7.679143      -21.368965       -1.316738
 C          -7.011418      -22.403978       -3.963011
 C          -7.263981      -20.440796       -2.422191
 C          -6.325180      -21.140297       -3.411129
 H          -8.006262      -24.119726       -3.337791
 H          -6.592280      -23.789555       -2.248879
 H          -8.410561      -20.934542       -0.655292
 H          -6.805159      -21.461002       -0.672907
 H          -7.974021      -22.147860       -4.455220
 H          -6.343578      -22.932478       -4.670505
 H          -6.830688      -19.537735       -2.017919
 H          -8.143003      -20.086285       -2.975331
 H          -6.025371      -20.416679       -4.156493
 H          -5.417110      -21.449064       -2.868595
