20
 generated by VMD
 C          -2.081241       -9.108794        0.804351
 N          -1.656048       -9.667797       -0.029386
 H          -2.541164      -11.974440        2.054956
 H          -3.407269      -12.273613        3.598213
 C          -3.348305      -12.546683        2.542877
 C          -2.836135      -13.978941        2.641769
 C          -4.730749      -12.406710        1.899405
 C          -3.918364      -14.981636        3.195497
 C          -5.692150      -13.383983        2.498905
 C          -5.256784      -14.822590        2.458390
 H          -1.948330      -14.136859        3.269617
 H          -2.524408      -14.381186        1.620556
 H          -5.089554      -11.407061        2.128979
 H          -4.752654      -12.455254        0.831765
 H          -3.969912      -14.738172        4.266795
 H          -3.536614      -16.020699        3.147783
 H          -6.676630      -13.233987        2.004122
 H          -5.880533      -13.106438        3.564723
 H          -5.995829      -15.418768        2.948313
 H          -5.173342      -15.084223        1.399672
