20
 generated by VMD
 C         -11.452429      -42.009701       -6.263864
 N         -11.044008      -41.177723       -6.910733
 H         -14.564037      -41.011135       -8.456957
 H         -15.608562      -40.356213       -9.721339
 C         -15.284754      -41.251644       -9.228052
 C         -16.489704      -41.878231       -8.601363
 C         -14.589025      -42.207561      -10.171567
 C         -17.444052      -42.465427       -9.663465
 C         -15.429530      -43.004349      -11.150877
 C         -16.766537      -43.461342      -10.555747
 H         -17.064026      -41.130257       -7.998511
 H         -16.239189      -42.629383       -7.862987
 H         -13.814188      -41.599590      -10.733478
 H         -14.012850      -42.841377       -9.467384
 H         -17.816668      -41.605663      -10.222058
 H         -18.289444      -43.017502       -9.211452
 H         -14.818419      -43.849319      -11.474720
 H         -15.638390      -42.349434      -12.017959
 H         -17.463541      -43.727795      -11.377256
 H         -16.602619      -44.344242       -9.960206
