20
 generated by VMD
 C         -58.509720     -152.001175      -49.467728
 N         -59.633125     -152.206696      -49.295822
 H         -56.164829     -149.842743      -48.166351
 H         -57.415215     -151.927612      -49.668785
 C         -55.221943     -149.647018      -48.767574
 C         -54.290035     -150.712463      -49.458435
 C         -54.826382     -148.196808      -48.878113
 C         -54.171528     -150.421524      -50.946365
 C         -54.773212     -147.996796      -50.484512
 C         -53.846058     -148.943985      -51.246284
 H         -54.694912     -151.640900      -49.138180
 H         -53.341721     -150.580292      -49.070423
 H         -55.617661     -147.450516      -48.521240
 H         -53.840477     -147.861542      -48.489166
 H         -55.179424     -150.494385      -51.428146
 H         -53.559795     -151.205276      -51.384743
 H         -54.562233     -146.896805      -50.787113
 H         -55.797245     -147.983246      -50.966991
 H         -53.742210     -148.772949      -52.324997
 H         -52.795372     -148.703049      -50.821918
