20
 generated by VMD
 C         -56.190964     -149.388123      -45.956036
 N         -56.112553     -150.385178      -45.392944
 H         -53.780495     -148.137405      -47.984108
 H         -56.269993     -148.401535      -46.385204
 C         -53.930729     -147.382370      -48.675926
 C         -53.130611     -147.529785      -49.857300
 C         -54.702427     -146.181976      -48.574982
 C         -53.636189     -147.007950      -51.176296
 C         -55.263382     -145.696182      -49.890163
 C         -54.208805     -145.654816      -50.989594
 H         -53.156952     -148.678864      -49.950035
 H         -52.171417     -147.058990      -49.688690
 H         -55.554001     -146.367950      -47.804619
 H         -54.013950     -145.364441      -48.154934
 H         -54.403866     -147.760162      -51.559010
 H         -52.746861     -147.009140      -51.967396
 H         -55.682777     -144.642075      -49.824165
 H         -56.189728     -146.189606      -50.146622
 H         -54.601505     -145.461060      -51.953098
 H         -53.450787     -144.888031      -50.744057
