20
 generated by VMD
 C         -80.316078     -206.846909      -74.001724
 N         -80.557419     -206.619797      -75.153145
 H         -76.606865     -207.553986      -73.011345
 H         -80.087425     -207.224976      -73.053177
 C         -76.460373     -207.638336      -71.938057
 C         -75.377342     -206.774475      -71.434029
 C         -77.297134     -208.669830      -71.179176
 C         -75.475983     -206.631226      -69.922935
 C         -77.387421     -208.240509      -69.684273
 C         -75.996498     -207.864899      -69.133461
 H         -75.482796     -205.836594      -72.020782
 H         -74.345627     -206.980789      -71.586594
 H         -78.323318     -208.583633      -71.624771
 H         -76.952675     -209.654022      -71.335548
 H         -76.190224     -205.777634      -69.762100
 H         -74.456490     -206.459473      -69.502747
 H         -77.801834     -209.096024      -69.127281
 H         -78.133919     -207.473465      -69.670532
 H         -75.971725     -207.653595      -68.067665
 H         -75.122375     -208.680145      -69.223976
