20
 generated by VMD
 C         -38.460773     -113.767357      -35.550007
 N         -38.139339     -114.864929      -35.570324
 H         -41.382229     -115.245392      -36.123409
 H         -38.929337     -112.741943      -35.569496
 C         -42.225540     -114.664627      -36.447983
 C         -42.686329     -114.550529      -37.886253
 C         -43.433334     -114.530800      -35.495476
 C         -43.694569     -115.670822      -38.204430
 C         -44.683315     -115.288383      -35.895645
 C         -45.030582     -115.351509      -37.373421
 H         -41.772121     -114.638824      -38.575241
 H         -43.150799     -113.546776      -38.098846
 H         -43.139988     -114.935394      -34.510437
 H         -43.669342     -113.479042      -35.242226
 H         -43.446648     -116.627785      -37.894157
 H         -43.963074     -115.641251      -39.255314
 H         -45.465500     -114.851555      -35.171162
 H         -44.621845     -116.375534      -35.509258
 H         -45.818176     -116.080978      -37.628250
 H         -45.466114     -114.481079      -37.733398
