20
 generated by VMD
 C         -49.878155     -142.524979      -45.238083
 N         -48.895348     -143.076111      -45.317970
 H         -51.694084     -139.660965      -45.737511
 H         -50.741135     -141.916473      -45.127136
 C         -52.522449     -139.964417      -46.351147
 C         -52.263721     -140.223709      -47.885040
 C         -53.961075     -140.334305      -45.786274
 C         -52.864834     -141.670395      -48.274128
 C         -54.308346     -141.788864      -46.197021
 C         -54.246334     -141.960800      -47.655178
 H         -51.144588     -140.131729      -48.087925
 H         -52.721886     -139.377457      -48.502460
 H         -53.799850     -140.239838      -44.736374
 H         -54.696598     -139.713226      -46.276558
 H         -52.151360     -142.558060      -47.956490
 H         -52.907551     -141.790405      -49.433708
 H         -55.350906     -142.022354      -45.782597
 H         -53.593529     -142.489395      -45.740833
 H         -54.642124     -142.945145      -48.028828
 H         -54.982906     -141.200882      -48.146366
