20
 generated by VMD
 C         -58.519669     -161.533447      -56.237778
 N         -58.254158     -160.388260      -56.277557
 H         -59.581841     -164.949371      -55.373543
 H         -58.804996     -162.601517      -56.247189
 C         -60.330280     -164.312698      -54.750439
 C         -59.743404     -163.543121      -53.601109
 C         -61.818756     -164.428772      -54.813774
 C         -60.482300     -162.280457      -53.311741
 C         -62.239323     -162.956787      -54.771984
 C         -61.972694     -162.272903      -53.472977
 H         -58.873352     -163.191589      -54.140549
 H         -59.667671     -164.123825      -52.686840
 H         -62.067265     -164.830856      -55.852665
 H         -62.188427     -164.986862      -53.975933
 H         -60.099953     -161.394669      -53.904171
 H         -60.156364     -162.081360      -52.186642
 H         -63.278893     -162.893921      -55.162579
 H         -61.800411     -162.298126      -55.645767
 H         -62.410789     -161.280670      -53.377460
 H         -62.454414     -162.899902      -52.663857
