20
 generated by VMD
 C         -31.081497      -74.927986      -21.641830
 N         -31.632864      -75.925896      -21.788555
 H         -28.589115      -76.422508      -21.100880
 H         -30.453476      -74.093834      -22.013847
 C         -27.548870      -76.151581      -21.140957
 C         -26.800114      -77.129768      -21.949862
 C         -26.886372      -74.835266      -20.632324
 C         -25.721823      -76.514511      -22.873426
 C         -25.878468      -74.289513      -21.632198
 C         -24.907328      -75.323662      -22.246475
 H         -27.364120      -77.780220      -22.777527
 H         -26.301617      -77.749641      -21.181526
 H         -27.596649      -73.999496      -20.288858
 H         -26.310411      -75.145287      -19.675119
 H         -26.222250      -76.102821      -23.808407
 H         -25.015503      -77.301071      -23.241756
 H         -25.292604      -73.463097      -21.126606
 H         -26.560274      -73.851646      -22.472803
 H         -24.238495      -74.865402      -23.022757
 H         -24.368469      -75.662285      -21.357708
