20
 generated by VMD
 C         -11.157953      -32.716637       -8.776085
 N         -11.932684      -32.999252       -9.542333
 H         -11.979033      -33.715931       -6.509181
 H         -12.694851      -34.169289       -4.898229
 C         -12.332932      -34.561619       -5.839785
 C         -11.155878      -35.520824       -5.638305
 C         -13.551773      -35.330334       -6.436908
 C         -11.436576      -36.896454       -4.957574
 C         -13.866900      -36.588093       -5.625674
 C         -12.638318      -37.520836       -5.686870
 H         -10.393581      -35.009708       -5.041578
 H         -10.627401      -35.779987       -6.585074
 H         -14.414293      -34.665791       -6.399725
 H         -13.411314      -35.722759       -7.459705
 H         -11.490789      -36.848526       -3.858638
 H         -10.553752      -37.542809       -5.122491
 H         -14.737638      -37.148506       -6.180726
 H         -14.206351      -36.417877       -4.635155
 H         -12.872459      -38.419781       -5.187401
 H         -12.445974      -37.816269       -6.739710
