20
 generated by VMD
 C         -32.418350      -93.307541      -25.399792
 N         -32.959927      -94.334145      -25.590784
 H         -33.741550      -94.985672      -28.713751
 H         -31.822056      -92.495499      -25.248692
 C         -34.267689      -94.203873      -29.191479
 C         -35.503441      -93.574646      -28.480452
 C         -33.735245      -93.380341      -30.286785
 C         -35.266239      -92.079559      -28.147614
 C         -33.540333      -91.914642      -29.863075
 C         -34.834801      -91.223808      -29.341093
 H         -35.777382      -94.260818      -27.596729
 H         -36.236504      -93.828606      -29.243555
 H         -32.814510      -93.851105      -30.669891
 H         -34.513699      -93.374290      -31.070459
 H         -34.603554      -92.086136      -27.291317
 H         -36.297367      -91.696999      -27.902340
 H         -33.042492      -91.378555      -30.712090
 H         -32.889961      -91.814301      -29.039995
 H         -34.701271      -90.160339      -29.034983
 H         -35.726902      -91.186752      -29.958441
