20
 generated by VMD
 C         -59.241566     -151.989471      -49.189899
 N         -58.825569     -152.244888      -50.199272
 H         -56.214542     -150.710907      -48.130836
 H         -59.740650     -151.665756      -48.315170
 C         -55.805538     -150.411514      -49.056343
 C         -54.739674     -151.323303      -49.741573
 C         -55.457417     -148.939392      -49.235527
 C         -54.231960     -150.885941      -51.104206
 C         -54.745018     -148.530228      -50.554611
 C         -53.701965     -149.523605      -51.008331
 H         -55.044239     -152.352417      -49.848000
 H         -53.827858     -151.580597      -49.113770
 H         -56.391991     -148.413330      -48.992577
 H         -54.798252     -148.824951      -48.409081
 H         -54.947620     -151.009552      -51.925426
 H         -53.345619     -151.490463      -51.312046
 H         -54.327950     -147.478012      -50.432083
 H         -55.554245     -148.663956      -51.310017
 H         -53.307129     -149.253006      -52.088432
 H         -52.877251     -149.507324      -50.338352
