20
 generated by VMD
 C         -32.901051      -96.659363      -25.354427
 N         -32.821743      -96.228020      -24.294912
 H         -34.542076      -93.670242      -27.444290
 H         -32.902351      -97.295731      -26.324564
 C         -34.651012      -93.336800      -28.434111
 C         -36.013908      -93.543808      -29.083042
 C         -33.486866      -93.160545      -29.370964
 C         -36.224697      -92.523483      -30.189964
 C         -33.781292      -92.295868      -30.551741
 C         -35.071766      -92.639549      -31.270321
 H         -36.638470      -93.424828      -28.187864
 H         -36.192188      -94.561401      -29.520771
 H         -32.603619      -92.765617      -28.857212
 H         -33.194580      -94.194138      -29.690588
 H         -36.106922      -91.448441      -29.699444
 H         -37.235481      -92.686272      -30.495047
 H         -32.961678      -92.046562      -31.260384
 H         -33.991413      -91.366875      -30.018049
 H         -35.356628      -91.813560      -32.027363
 H         -34.849674      -93.621315      -31.747065
