20
 generated by VMD
 C         -68.931808     -193.436371      -66.633705
 N         -67.835091     -193.555344      -66.363571
 H         -70.058418     -190.178146      -65.446602
 H         -70.023514     -193.252731      -66.650444
 C         -71.029404     -190.715454      -65.456512
 C         -71.926392     -190.619659      -66.605247
 C         -71.464256     -191.100845      -64.106178
 C         -73.075493     -191.636765      -66.497597
 C         -73.005898     -190.996216      -64.015526
 C         -73.642662     -191.790421      -65.150436
 H         -71.378365     -190.933273      -67.598183
 H         -72.292664     -189.622330      -66.818886
 H         -71.062584     -192.202835      -63.891777
 H         -71.002129     -190.552856      -63.291237
 H         -72.676086     -192.652573      -66.818359
 H         -73.921440     -191.243149      -67.110970
 H         -73.306183     -189.971542      -64.268204
 H         -73.506699     -191.262009      -63.007114
 H         -73.691086     -192.777115      -64.832283
 H         -74.788307     -191.614456      -65.239220
