20
 generated by VMD
 C         -45.648724     -123.645386      -35.497952
 N         -46.243961     -124.624947      -35.409771
 H         -44.704700     -122.045944      -38.072491
 H         -45.236725     -122.598991      -35.623646
 C         -44.804432     -121.673836      -39.098782
 C         -43.393658     -121.334351      -39.637989
 C         -45.789272     -120.707497      -39.480415
 C         -43.419090     -121.233856      -41.183151
 C         -45.874722     -120.524956      -41.022800
 C         -44.434483     -120.110130      -41.606091
 H         -42.673836     -122.072701      -39.336971
 H         -42.815716     -120.403442      -39.235233
 H         -46.678665     -121.095802      -38.920513
 H         -45.471886     -119.669174      -39.048100
 H         -43.573433     -122.239830      -41.643883
 H         -42.418507     -121.066750      -41.665409
 H         -46.492268     -119.758575      -41.314922
 H         -46.218102     -121.468086      -41.436680
 H         -44.494850     -120.212448      -42.751259
 H         -44.152245     -119.070656      -41.309803
