20
 generated by VMD
 C         -21.198524      -52.189789       -9.717700
 N         -21.397282      -52.733185      -10.752422
 H         -19.486105      -50.207035      -12.092263
 H         -20.874081      -51.764393       -8.799781
 C         -18.546045      -50.174862      -12.614600
 C         -17.992960      -51.553616      -12.970156
 C         -17.548746      -49.168716      -12.233742
 C         -16.853952      -51.488350      -14.032137
 C         -16.350050      -49.211464      -13.247032
 C         -15.717692      -50.579754      -13.580402
 H         -18.838030      -52.181149      -13.313803
 H         -17.557558      -52.017365      -12.124103
 H         -18.006275      -48.196983      -12.098106
 H         -17.147207      -49.353207      -11.198727
 H         -17.191948      -51.219868      -15.043328
 H         -16.383253      -52.458542      -14.150486
 H         -15.573803      -48.654030      -12.776759
 H         -16.609890      -48.729259      -14.248050
 H         -14.944582      -50.467812      -14.393049
 H         -15.161618      -50.990398      -12.668247
