20
 generated by VMD
 C         -41.801716     -102.143883      -33.945686
 N         -40.761566     -101.888924      -34.429619
 H         -39.402550     -103.468781      -32.409786
 H         -42.518478     -102.703438      -33.367531
 C         -38.345898     -103.890556      -32.173592
 C         -37.134113     -103.705620      -33.068996
 C         -38.147858     -104.692665      -30.918224
 C         -35.972492     -103.092529      -32.292770
 C         -36.844585     -104.272514      -30.284834
 C         -35.588749     -104.042351      -31.188486
 H         -37.527386     -103.192680      -33.962811
 H         -36.786259     -104.663002      -33.495174
 H         -38.893120     -104.492805      -30.191969
 H         -38.335835     -105.687752      -31.305346
 H         -36.148457     -102.056396      -31.981239
 H         -35.019985     -103.154480      -32.729137
 H         -36.595459     -104.901047      -29.460903
 H         -37.027756     -103.233879      -29.850916
 H         -34.742001     -103.736023      -30.651270
 H         -35.396667     -104.994308      -31.690861
