20
 generated by VMD
 C         -22.316309      -67.530716      -16.098839
 N         -21.184486      -67.264458      -16.142132
 H         -23.996540      -65.156128      -18.363792
 H         -23.312733      -67.753952      -16.330332
 C         -24.456099      -66.168419      -18.587580
 C         -23.789877      -66.738152      -19.952528
 C         -25.890167      -66.507164      -18.365227
 C         -24.482613      -68.092888      -20.348980
 C         -26.512999      -67.787277      -18.806841
 C         -26.018587      -68.076462      -20.224453
 H         -22.726412      -66.836205      -19.798704
 H         -23.968931      -65.819748      -20.598555
 H         -26.185024      -66.248421      -17.366640
 H         -26.543114      -65.762466      -18.842659
 H         -24.126799      -68.946259      -19.690842
 H         -24.093477      -68.362724      -21.391157
 H         -27.593246      -67.916183      -18.656670
 H         -25.984058      -68.594475      -18.174313
 H         -26.321079      -69.045990      -20.610903
 H         -26.321804      -67.197685      -20.816147
