20
 generated by VMD
 C         -10.844722      -36.609810       -7.932351
 N          -9.884469      -36.928684       -7.465726
 H         -12.984039      -38.814854       -8.060561
 H         -14.308046      -38.951908       -6.858606
 C         -13.935885      -39.348991       -7.855361
 C         -13.695468      -40.820450       -7.654303
 C         -14.979661      -39.109104       -8.962745
 C         -14.924684      -41.699818       -7.594405
 C         -16.281155      -39.824261       -8.634483
 C         -15.906480      -41.303452       -8.717349
 H         -13.100062      -40.883709       -6.689302
 H         -13.114057      -41.151779       -8.548263
 H         -15.239710      -38.023502       -9.012929
 H         -14.561131      -39.477024       -9.896034
 H         -15.361305      -41.506783       -6.589738
 H         -14.686917      -42.726971       -7.780774
 H         -17.090450      -39.598289       -9.437015
 H         -16.708555      -39.562317       -7.700705
 H         -16.879732      -41.885410       -8.691308
 H         -15.462441      -41.558781       -9.712106
