20
 generated by VMD
 C         -29.470352      -89.320747      -26.041897
 N         -29.523458      -88.684601      -25.042540
 H         -31.793175      -90.830299      -27.716494
 H         -29.236885      -89.833099      -27.047844
 C         -32.476673      -90.026497      -27.427883
 C         -33.245750      -90.174942      -26.152006
 C         -32.974663      -89.259903      -28.562977
 C         -34.129330      -88.949402      -25.947556
 C         -33.945324      -88.114113      -28.302822
 C         -34.982327      -88.518295      -27.226879
 H         -32.624744      -90.261047      -25.305426
 H         -33.753445      -91.104408      -26.048494
 H         -32.016171      -88.899307      -29.094448
 H         -33.532867      -89.927902      -29.251667
 H         -33.337845      -88.188316      -25.688419
 H         -34.799786      -89.131149      -25.066130
 H         -34.364746      -87.796707      -29.215475
 H         -33.486362      -87.231232      -27.885073
 H         -35.714153      -87.786583      -26.951750
 H         -35.529797      -89.406754      -27.493834
