20
 generated by VMD
 C         -31.023529      -75.713531      -22.675005
 N         -30.974678      -74.934517      -23.502647
 H         -28.759672      -78.755692      -21.441574
 H         -30.923981      -76.565681      -22.021526
 C         -27.961279      -78.071121      -21.551630
 C         -26.967056      -78.222710      -22.670988
 C         -27.490490      -77.080574      -20.423632
 C         -26.245907      -76.940384      -23.198347
 C         -26.894224      -75.840019      -20.978708
 C         -25.791784      -75.982292      -21.996710
 H         -27.447744      -78.744789      -23.524527
 H         -26.261314      -78.918724      -22.259531
 H         -28.218445      -76.905647      -19.591661
 H         -26.592569      -77.611000      -19.942158
 H         -26.932234      -76.353638      -23.812763
 H         -25.381304      -77.055275      -23.830410
 H         -26.557203      -75.155846      -20.146677
 H         -27.785984      -75.360489      -21.517914
 H         -25.502220      -75.002022      -22.379875
 H         -24.953064      -76.598267      -21.480249
