20
 generated by VMD
 C         -68.913185     -184.654816      -66.229317
 N         -69.546623     -185.463394      -66.773094
 H         -69.665222     -182.963608      -63.511719
 H         -68.351044     -183.827301      -65.695343
 C         -69.046585     -183.650986      -62.864643
 C         -69.840660     -184.772491      -62.326340
 C         -68.128365     -182.950485      -61.913300
 C         -68.944504     -185.636765      -61.321251
 C         -67.150375     -183.949203      -61.351444
 C         -67.843948     -184.911682      -60.477211
 H         -70.390770     -185.333435      -63.113815
 H         -70.632729     -184.396957      -61.676666
 H         -67.626366     -182.187561      -62.532394
 H         -68.603424     -182.498428      -61.087280
 H         -68.268097     -186.393600      -61.853947
 H         -69.712723     -186.192688      -60.719250
 H         -66.439743     -183.285660      -60.893925
 H         -66.649620     -184.635239      -62.081024
 H         -67.208282     -185.651947      -60.120979
 H         -68.338089     -184.537079      -59.610794
