20
 generated by VMD
 C         -48.463112     -135.938904      -46.144478
 N         -47.344109     -136.175888      -45.746094
 H         -52.095860     -135.234558      -45.949223
 H         -49.419830     -135.740662      -46.650635
 C         -51.624359     -136.039719      -45.404716
 C         -52.326569     -137.265579      -45.905628
 C         -51.328342     -135.943756      -43.922379
 C         -51.721935     -138.604050      -45.239891
 C         -50.793804     -137.298141      -43.380127
 C         -51.798576     -138.337784      -43.685600
 H         -52.173195     -137.268051      -47.006733
 H         -53.428219     -137.289505      -45.817562
 H         -50.655930     -135.103378      -43.515903
 H         -52.255177     -135.804581      -43.330391
 H         -50.714130     -138.719864      -45.666637
 H         -52.439617     -139.460968      -45.470928
 H         -50.631756     -137.214859      -42.286980
 H         -49.860600     -137.620514      -43.845036
 H         -51.461845     -139.257004      -43.178226
 H         -52.782253     -138.093445      -43.437325
