20
 generated by VMD
 C         -49.738316     -127.756752      -40.384914
 N         -50.709866     -127.844696      -41.049637
 H         -46.714264     -127.376877      -42.175484
 H         -49.050529     -127.669785      -39.568310
 C         -46.783772     -126.784332      -41.301357
 C         -45.820503     -127.311943      -40.189804
 C         -46.877464     -125.297646      -41.444191
 C         -44.432831     -126.733528      -40.634636
 C         -45.493874     -124.847839      -41.788658
 C         -44.393318     -125.229607      -40.790428
 H         -45.746822     -128.383591      -40.279064
 H         -46.151798     -127.137894      -39.046326
 H         -47.433361     -125.091789      -42.411598
 H         -47.254875     -124.823662      -40.615894
 H         -44.110756     -127.308968      -41.555916
 H         -43.582726     -126.982109      -39.962276
 H         -45.294258     -123.765198      -41.875443
 H         -45.187756     -125.369438      -42.714279
 H         -43.406101     -125.099564      -41.238510
 H         -44.494301     -124.708923      -39.850456
