20
 generated by VMD
 C          -3.784738      -20.307417        3.290736
 N          -4.276903      -19.360195        2.959757
 H          -5.259776      -19.782990       -0.074501
 H          -6.255767      -21.009132       -0.802458
 C          -6.047904      -19.930235       -0.811539
 C          -5.633769      -19.578690       -2.192299
 C          -7.304184      -19.218576       -0.394738
 C          -6.750589      -19.882614       -3.180416
 C          -8.505178      -19.643204       -1.252240
 C          -8.196710      -19.451498       -2.743500
 H          -4.750024      -20.113117       -2.396435
 H          -5.496541      -18.449879       -2.169943
 H          -7.517222      -19.436481        0.736927
 H          -7.131347      -18.117044       -0.637392
 H          -6.765142      -20.935032       -3.369582
 H          -6.506082      -19.395306       -4.120482
 H          -9.376726      -19.096302       -0.951041
 H          -8.670337      -20.668152       -0.956138
 H          -8.858636      -20.068621       -3.362508
 H          -8.289047      -18.363270       -2.965595
