20
 generated by VMD
 C         -29.450443      -89.075302      -26.073360
 N         -29.510853      -88.786980      -24.970066
 H         -31.597786      -90.641731      -27.694939
 H         -29.596594      -89.424850      -27.094343
 C         -32.518509      -90.073326      -27.492176
 C         -33.121269      -90.020233      -26.078947
 C         -32.999977      -89.275429      -28.650085
 C         -34.133053      -88.887497      -25.903210
 C         -33.987469      -88.140373      -28.287367
 C         -34.844704      -88.471901      -27.115946
 H         -32.428612      -90.118744      -25.269045
 H         -33.710926      -90.890732      -25.900459
 H         -32.174118      -88.764748      -29.254036
 H         -33.541286      -89.912766      -29.372894
 H         -33.514702      -87.987991      -25.520691
 H         -34.878880      -89.180275      -25.091797
 H         -34.536369      -87.908554      -29.162458
 H         -33.492325      -87.196754      -28.015203
 H         -35.536312      -87.696472      -26.846535
 H         -35.487862      -89.272003      -27.394348
