20
 generated by VMD
 C         -50.456219     -127.720055      -40.765854
 N         -51.176495     -128.237656      -41.489704
 H         -47.306824     -127.722580      -41.683254
 H         -49.863705     -127.206398      -39.998695
 C         -46.685928     -127.028954      -41.012577
 C         -45.570988     -127.425720      -40.117321
 C         -46.814419     -125.520409      -41.238754
 C         -44.272015     -126.910515      -40.707722
 C         -45.493343     -125.054993      -41.894863
 C         -44.304726     -125.461723      -40.976723
 H         -45.433250     -128.472046      -39.837929
 H         -45.639019     -126.918442      -39.047039
 H         -47.713684     -125.258369      -41.992863
 H         -46.921463     -125.125320      -40.269882
 H         -43.932476     -127.475151      -41.585835
 H         -43.558689     -127.221169      -39.951706
 H         -45.562817     -123.965012      -41.885792
 H         -45.320557     -125.467445      -42.979179
 H         -43.420647     -125.157959      -41.523106
 H         -44.325859     -124.915131      -40.014999
