20
 generated by VMD
 C         -31.761158      -75.971657      -24.111124
 N         -31.236511      -76.372818      -25.039011
 H         -29.685137      -77.666092      -22.330587
 H         -32.577370      -75.660744      -23.445385
 C         -28.608603      -77.918968      -22.121248
 C         -27.606495      -78.226097      -23.275522
 C         -28.256603      -78.391396      -20.725582
 C         -26.216162      -77.805168      -22.917973
 C         -26.882490      -77.786064      -20.388380
 C         -25.769520      -78.255470      -21.474983
 H         -27.899237      -77.798752      -24.185614
 H         -27.589872      -79.285553      -23.528408
 H         -29.089851      -78.021828      -20.000412
 H         -28.214516      -79.471718      -20.793404
 H         -26.001287      -76.741058      -23.102211
 H         -25.527285      -78.259506      -23.707930
 H         -26.603233      -78.134300      -19.333885
 H         -26.793190      -76.591980      -20.441996
 H         -24.907469      -77.600777      -21.358500
 H         -25.503054      -79.307678      -21.430641
