20
 generated by VMD
 C         -18.087805      -48.554916       -7.373815
 N         -18.387329      -48.789406       -6.335354
 H         -16.357504      -48.154484      -10.169238
 H         -16.166821      -49.108219      -11.621513
 C         -16.340679      -48.028027      -11.289251
 C         -15.190268      -47.119400      -11.745098
 C         -17.725294      -47.639820      -11.798821
 C         -15.259441      -46.773746      -13.222952
 C         -17.809322      -47.500397      -13.290866
 C         -16.729244      -46.444519      -13.670390
 H         -14.230714      -47.597542      -11.622944
 H         -15.002296      -46.187943      -11.154660
 H         -18.430288      -48.408451      -11.488507
 H         -17.956358      -46.694683      -11.350419
 H         -14.918444      -47.648308      -13.810410
 H         -14.589602      -45.903297      -13.372020
 H         -18.816750      -47.197849      -13.739911
 H         -17.613110      -48.498222      -13.698641
 H         -16.713118      -46.330196      -14.788673
 H         -17.047899      -45.465054      -13.187135
