20
 generated by VMD
 C         -30.692856      -75.856041      -22.477285
 N         -31.225847      -74.795753      -22.695496
 H         -28.740150      -78.152786      -21.495962
 H         -30.154356      -76.720840      -22.358753
 C         -27.923214      -77.508438      -21.716774
 C         -26.761890      -78.124878      -22.479473
 C         -27.635996      -76.557129      -20.688498
 C         -25.973148      -76.959679      -23.060139
 C         -26.859049      -75.394913      -21.174936
 C         -25.673103      -75.851013      -22.077448
 H         -27.123924      -78.700081      -23.264723
 H         -26.154047      -78.613228      -21.677513
 H         -28.508791      -76.194077      -20.153122
 H         -27.061790      -77.052254      -19.880619
 H         -26.432646      -76.719872      -24.028353
 H         -24.976841      -77.393013      -23.232445
 H         -26.389370      -74.799637      -20.257036
 H         -27.476448      -74.641373      -21.728355
 H         -25.054918      -75.024109      -22.595991
 H         -24.956047      -76.225769      -21.376514
