20
 generated by VMD
 C         -32.288437      -95.104782      -25.516422
 N         -33.328045      -95.079643      -24.998007
 H         -33.936802      -94.561989      -27.909410
 H         -31.356474      -94.934029      -26.044788
 C         -34.297600      -93.919090      -28.638712
 C         -35.757771      -93.612694      -28.715172
 C         -33.376324      -93.481384      -29.754555
 C         -35.893303      -92.219200      -29.186903
 C         -33.665493      -92.068199      -30.184082
 C         -35.151600      -91.740128      -30.416105
 H         -36.158344      -93.845955      -27.707613
 H         -36.218327      -94.374855      -29.408733
 H         -32.322609      -93.468643      -29.415663
 H         -33.439377      -94.201797      -30.574230
 H         -35.423367      -91.655762      -28.337648
 H         -36.995457      -91.970352      -29.061367
 H         -33.234802      -91.896545      -31.139688
 H         -33.360706      -91.381248      -29.312155
 H         -35.364964      -90.678551      -30.689484
 H         -35.461067      -92.167068      -31.347878
