20
 generated by VMD
 C         -10.994982      -33.033985       -8.665654
 N         -11.746823      -33.192444       -9.491118
 H         -12.457408      -33.707752       -6.312901
 H         -12.668128      -34.428284       -4.722968
 C         -12.536499      -34.644127       -5.774174
 C         -11.229082      -35.468052       -5.845695
 C         -13.789421      -35.369747       -6.300835
 C         -11.453420      -36.836857       -5.144932
 C         -13.915124      -36.782642       -5.748317
 C         -12.633816      -37.564602       -5.785948
 H         -10.417673      -34.926144       -5.360857
 H         -11.001397      -35.649368       -6.873973
 H         -14.664402      -34.783680       -6.030785
 H         -13.600990      -35.295925       -7.393278
 H         -11.692595      -36.698505       -4.113928
 H         -10.567906      -37.489834       -5.245416
 H         -14.725297      -37.306515       -6.273634
 H         -14.196192      -36.719879       -4.701872
 H         -12.768467      -38.596401       -5.418403
 H         -12.297141      -37.644421       -6.808348
