20
 generated by VMD
 C         -50.012844     -132.012650      -46.661091
 N         -49.992809     -132.522858      -47.689392
 H         -48.271626     -132.221924      -44.194012
 H         -49.985291     -131.202637      -45.973526
 C         -48.651134     -132.811035      -43.323990
 C         -49.566921     -133.906494      -43.800201
 C         -48.875710     -132.343201      -41.921165
 C         -49.410526     -135.119186      -42.944031
 C         -48.752033     -133.557175      -40.994862
 C         -49.565434     -134.787384      -41.419281
 H         -49.160145     -134.092911      -44.862087
 H         -50.466019     -133.420547      -43.965031
 H         -48.113937     -131.573929      -41.633320
 H         -49.869759     -131.912506      -41.862930
 H         -48.499809     -135.678391      -43.192841
 H         -50.222298     -135.813431      -43.184910
 H         -48.966606     -133.264404      -39.973751
 H         -47.650467     -133.932816      -40.873566
 H         -49.120438     -135.659698      -41.035477
 H         -50.659206     -134.734726      -41.210480
