20
 generated by VMD
 C         -38.880981     -111.495544      -36.546577
 N         -38.335835     -110.470131      -36.694050
 H         -40.476967     -114.651237      -34.761639
 H         -39.399212     -112.321083      -36.154976
 C         -41.256184     -114.002174      -35.099449
 C         -41.658924     -114.029083      -36.605244
 C         -41.921761     -112.925987      -34.301441
 C         -43.171764     -114.093437      -36.741508
 C         -43.464249     -113.041008      -34.544353
 C         -43.823994     -112.901619      -36.029804
 H         -41.240322     -114.925079      -37.156559
 H         -41.315002     -113.091026      -36.944832
 H         -41.825756     -112.979141      -33.201946
 H         -41.566574     -111.930931      -34.710041
 H         -43.421406     -115.131195      -36.418953
 H         -43.496082     -114.081017      -37.742634
 H         -43.985870     -112.190689      -33.952682
 H         -43.911816     -114.096252      -34.301552
 H         -44.856014     -112.796547      -36.102512
 H         -43.386879     -111.939003      -36.407200
