20
 generated by VMD
 C         -35.167812      -97.810043      -25.786480
 N         -35.951443      -97.494850      -26.583214
 H         -35.682793      -95.227135      -27.860416
 H         -34.365406      -98.015717      -25.202003
 C         -35.301735      -94.915871      -28.847708
 C         -35.873177      -95.667526      -29.996296
 C         -34.030540      -94.077087      -28.954716
 C         -35.600998      -95.016991      -31.349131
 C         -33.884457      -93.597206      -30.410292
 C         -34.163742      -94.536697      -31.523151
 H         -36.959579      -95.974228      -29.786715
 H         -35.291409      -96.571121      -30.024696
 H         -34.066101      -93.173042      -28.253527
 H         -33.152527      -94.617310      -28.572515
 H         -36.263771      -94.116722      -31.435585
 H         -35.925423      -95.711174      -32.065163
 H         -32.783314      -93.402832      -30.645903
 H         -34.371082      -92.656174      -30.539452
 H         -34.065540      -94.101318      -32.456200
 H         -33.484867      -95.391243      -31.304586
