20
 generated by VMD
 C         -10.989474      -33.071201       -8.668224
 N         -11.713795      -33.213161       -9.472831
 H         -12.467737      -33.737717       -6.344602
 H         -12.801158      -34.376648       -4.692945
 C         -12.575137      -34.672344       -5.736774
 C         -11.258260      -35.450047       -5.864041
 C         -13.795946      -35.364956       -6.292433
 C         -11.443764      -36.854939       -5.166430
 C         -13.915632      -36.779659       -5.787353
 C         -12.629301      -37.562962       -5.780636
 H         -10.363541      -34.862843       -5.569469
 H         -11.034721      -35.726826       -6.937564
 H         -14.721693      -34.822334       -6.021600
 H         -13.714263      -35.396034       -7.388856
 H         -11.506686      -36.745625       -4.035057
 H         -10.561793      -37.503002       -5.227476
 H         -14.772696      -37.322098       -6.297840
 H         -14.236463      -36.755615       -4.735169
 H         -12.751508      -38.584324       -5.460026
 H         -12.345338      -37.564331       -6.856498
