20
 generated by VMD
 C         -22.377033      -55.111713      -17.248926
 N         -22.865177      -54.906849      -18.246155
 H         -20.801544      -56.231010      -14.462368
 H         -21.835211      -55.450508      -16.444111
 C         -20.583494      -57.349579      -14.329080
 C         -20.730738      -57.892784      -13.016811
 C         -19.405754      -57.850407      -15.054043
 C         -20.890892      -59.376884      -13.037230
 C         -19.564358      -59.305462      -15.290328
 C         -19.809521      -59.892078      -13.910595
 H         -21.582195      -57.452862      -12.413558
 H         -19.874609      -57.649979      -12.380120
 H         -19.478315      -57.290997      -15.988770
 H         -18.432831      -57.708984      -14.626311
 H         -21.826843      -59.681622      -13.485297
 H         -20.909515      -59.712116      -12.041108
 H         -18.711075      -59.822166      -15.780654
 H         -20.350998      -59.453522      -16.003105
 H         -19.864931      -60.990414      -14.122713
 H         -18.877399      -59.740639      -13.414639
