20
 generated by VMD
 C         -50.806763     -129.655014      -45.372093
 N         -51.545719     -130.398865      -45.926575
 H         -48.743759     -130.440109      -43.640453
 H         -50.388771     -128.970703      -44.679573
 C         -48.209824     -130.639313      -42.773621
 C         -48.275223     -132.034317      -42.101284
 C         -47.748123     -129.429504      -41.923775
 C         -46.983219     -132.241272      -41.219360
 C         -46.522053     -129.878296      -41.048176
 C         -46.709160     -131.091858      -40.217926
 H         -48.218166     -132.822067      -43.004459
 H         -49.195396     -132.151505      -41.597786
 H         -47.569061     -128.553665      -42.461491
 H         -48.665993     -129.042480      -41.371483
 H         -46.077148     -132.284622      -41.878761
 H         -47.083485     -133.133865      -40.610844
 H         -46.284214     -129.013275      -40.378742
 H         -45.731308     -129.903641      -41.764046
 H         -45.681385     -131.153046      -39.691757
 H         -47.396137     -131.045441      -39.312756
