20
 generated by VMD
 C          -2.489974      -16.927820        2.821365
 N          -2.402182      -16.542494        1.774030
 H          -4.468026      -15.824980        0.074273
 H          -4.429712      -17.189358       -1.070010
 C          -5.045342      -16.658209       -0.323024
 C          -6.301137      -16.025219       -0.829956
 C          -5.436824      -17.657253        0.789461
 C          -7.229721      -17.091228       -1.418447
 C          -6.491707      -18.694744        0.452141
 C          -7.645705      -18.073877       -0.392118
 H          -5.954989      -15.301115       -1.599066
 H          -6.853211      -15.480483       -0.084958
 H          -4.457123      -18.061192        1.062786
 H          -5.793942      -16.931509        1.603864
 H          -6.647607      -17.582333       -2.233927
 H          -8.053868      -16.673206       -1.959809
 H          -6.946051      -19.223963        1.347876
 H          -6.069937      -19.484632       -0.166864
 H          -8.340457      -18.846151       -0.703996
 H          -8.246728      -17.503189        0.338970
