20
 generated by VMD
 C         -69.943039     -183.033676      -65.932182
 N         -71.058304     -183.065674      -65.705925
 H         -67.080437     -183.200989      -63.156151
 H         -68.900093     -183.058685      -66.190315
 C         -67.352531     -182.791199      -62.204159
 C         -67.728638     -183.722534      -60.985947
 C         -67.332237     -181.241577      -61.968929
 C         -66.909363     -183.135422      -59.775909
 C         -66.361908     -180.953995      -60.868622
 C         -66.693123     -181.640442      -59.584270
 H         -67.396637     -184.755966      -61.150269
 H         -68.788857     -183.497971      -60.859138
 H         -67.137848     -180.833237      -63.025227
 H         -68.277420     -180.937912      -61.617210
 H         -65.920021     -183.773605      -59.875149
 H         -67.430435     -183.506363      -58.807804
 H         -66.231758     -179.893723      -60.652325
 H         -65.357452     -181.327164      -61.104790
 H         -65.802567     -181.620605      -58.824219
 H         -67.593880     -181.170273      -59.178471
