20
 generated by VMD
 C         -48.164974     -136.270065      -46.061058
 N         -46.994377     -136.087250      -46.174168
 H         -51.549149     -135.141251      -45.806786
 H         -49.264652     -136.454285      -46.036755
 C         -51.528904     -136.187424      -45.365448
 C         -52.279510     -137.366455      -46.004902
 C         -51.568913     -136.102448      -43.928677
 C         -51.906601     -138.682037      -45.380066
 C         -51.306114     -137.443222      -43.172173
 C         -52.008194     -138.589066      -43.794933
 H         -52.025368     -137.521255      -47.017406
 H         -53.405724     -137.182343      -46.057156
 H         -51.026829     -135.196793      -43.446838
 H         -52.652477     -135.850220      -43.785851
 H         -50.950706     -139.117996      -45.683887
 H         -52.800068     -139.344131      -45.722664
 H         -51.683323     -137.424271      -42.182709
 H         -50.188145     -137.646469      -43.127762
 H         -51.710712     -139.562363      -43.434158
 H         -52.960831     -138.643921      -43.467102
