20
 generated by VMD
 C         -49.696468     -127.754997      -39.061272
 N         -49.681816     -126.690407      -38.618759
 H         -47.066986     -125.747162      -40.646667
 H         -50.000069     -128.741058      -39.383942
 C         -46.174717     -125.171059      -40.764050
 C         -44.861645     -125.764275      -40.429482
 C         -46.477634     -123.662163      -41.039600
 C         -43.698723     -124.848442      -40.884590
 C         -45.206196     -122.927925      -41.522610
 C         -43.918716     -123.362564      -40.767746
 H         -44.706783     -126.773048      -40.828045
 H         -44.788334     -125.894379      -39.261536
 H         -47.193111     -123.353157      -41.838234
 H         -46.869579     -123.288666      -40.169384
 H         -43.633682     -125.091476      -41.968204
 H         -42.741516     -125.202774      -40.473969
 H         -45.354557     -121.873390      -41.562481
 H         -44.975384     -123.249496      -42.526440
 H         -42.995640     -122.887260      -41.126450
 H         -43.935249     -123.092781      -39.714432
