20
 generated by VMD
 C         -58.660393     -152.060059      -49.035400
 N         -59.391293     -152.167068      -49.923344
 H         -55.966156     -150.379761      -48.089600
 H         -58.050667     -151.826950      -48.154587
 C         -55.504906     -150.085999      -49.019367
 C         -54.564613     -151.063263      -49.582981
 C         -55.175301     -148.558487      -49.158733
 C         -54.220520     -150.535248      -50.928524
 C         -54.739040     -148.186447      -50.556595
 C         -53.718304     -149.193939      -51.076260
 H         -55.042015     -152.049042      -49.702473
 H         -53.603168     -151.062027      -49.138008
 H         -56.109108     -148.100555      -48.901234
 H         -54.469429     -148.183929      -48.357273
 H         -55.011204     -150.554962      -51.647148
 H         -53.504494     -151.290039      -51.319130
 H         -54.254307     -147.147049      -50.578518
 H         -55.552834     -148.027939      -51.204399
 H         -53.462914     -149.010361      -52.153473
 H         -52.787052     -149.050308      -50.489834
