20
 generated by VMD
 C         -19.929565      -51.283623      -10.328719
 N         -20.631874      -51.183529       -9.410521
 H         -17.673555      -48.945549      -10.150123
 H         -18.819515      -51.320969      -10.979825
 C         -17.172770      -48.924984      -11.135934
 C         -16.365885      -50.099297      -11.625391
 C         -17.373793      -47.893627      -12.123857
 C         -16.413252      -50.466476      -13.127781
 C         -17.560734      -48.366230      -13.554914
 C         -16.425957      -49.206890      -14.022115
 H         -16.541729      -50.955730      -10.992285
 H         -15.297044      -49.919094      -11.488666
 H         -18.126207      -47.143459      -11.820509
 H         -16.408728      -47.336140      -12.165178
 H         -17.217770      -51.094494      -13.408799
 H         -15.520621      -51.009007      -13.313389
 H         -17.705040      -47.530735      -14.293418
 H         -18.414797      -48.928539      -13.554091
 H         -16.519148      -49.489277      -15.049134
 H         -15.511066      -48.662819      -13.901763
