20
 generated by VMD
 C         -51.180828     -130.020782      -44.992508
 N         -51.705402     -129.284546      -45.716385
 H         -48.538498     -129.984879      -43.300262
 H         -50.502293     -130.610474      -44.349400
 C         -47.881210     -129.946823      -42.371597
 C         -48.003738     -131.339188      -41.599701
 C         -47.477966     -128.692657      -41.529713
 C         -46.553947     -131.539505      -41.053947
 C         -46.064552     -129.031860      -41.042797
 C         -46.034286     -130.353180      -40.315727
 H         -48.247688     -132.055771      -42.317852
 H         -48.772476     -131.344955      -40.777771
 H         -47.549095     -127.797409      -42.198223
 H         -48.201035     -128.571991      -40.851498
 H         -46.064201     -131.758240      -42.014400
 H         -46.636234     -132.398041      -40.275921
 H         -45.674370     -128.164062      -40.480213
 H         -45.380184     -129.067093      -41.952759
 H         -44.974560     -130.480148      -40.048496
 H         -46.445599     -130.267426      -39.274925
