20
 generated by VMD
 C          -1.936990      -13.733526        0.894621
 N          -1.737428      -12.903807        1.617380
 H          -3.576227      -17.026176        1.529306
 H          -4.113445      -16.815889       -0.154165
 C          -4.431146      -16.925875        0.885515
 C          -5.137452      -15.687399        1.236411
 C          -5.434295      -18.093510        0.994303
 C          -6.354071      -15.321642        0.389041
 C          -6.681814      -17.847961        0.049214
 C          -7.361978      -16.488131        0.365163
 H          -4.393552      -14.827606        1.304136
 H          -5.519313      -15.709470        2.261167
 H          -5.006781      -18.976011        0.737872
 H          -5.793592      -18.042933        1.980617
 H          -6.023334      -15.028607       -0.568115
 H          -6.846700      -14.475430        0.850962
 H          -7.419808      -18.591463        0.289549
 H          -6.392981      -17.921988       -1.017208
 H          -8.163600      -16.355511       -0.365505
 H          -7.885861      -16.565722        1.341495
