20
 generated by VMD
 C         -40.752491     -103.869026      -37.193146
 N         -40.388500     -104.765137      -36.521381
 H         -39.760479     -106.651237      -34.672314
 H         -41.143578     -103.190567      -37.944740
 C         -39.512268     -106.964233      -33.688931
 C         -38.398930     -106.454620      -32.917934
 C         -39.948158     -108.359177      -33.379166
 C         -37.984253     -106.977898      -31.520260
 C         -39.578365     -108.824371      -31.897743
 C         -38.144485     -108.462067      -31.454687
 H         -38.475117     -105.324883      -32.854588
 H         -37.565086     -106.773415      -33.524029
 H         -41.049812     -108.662621      -33.672497
 H         -39.256340     -108.970909      -34.024590
 H         -38.611179     -106.502449      -30.768694
 H         -36.994003     -106.590576      -31.346331
 H         -39.621613     -109.911659      -31.701527
 H         -40.270050     -108.265602      -31.166878
 H         -38.033482     -108.630646      -30.290388
 H         -37.350178     -108.961975      -31.948036
