20
 generated by VMD
 C         -13.092402      -31.119110       -8.230502
 N         -12.654032      -30.119833       -8.454940
 H         -11.464418      -32.778019       -7.077526
 H         -12.050383      -32.355408       -5.487451
 C         -11.564022      -33.183994       -6.014638
 C         -10.096582      -33.243176       -5.419906
 C         -12.223809      -34.510509       -5.885853
 C         -10.025717      -33.812389       -4.014222
 C         -12.112959      -35.035545       -4.459033
 C         -10.651398      -35.168564       -4.016979
 H          -9.643089      -32.220284       -5.443325
 H          -9.422817      -33.778625       -6.123981
 H         -13.260286      -34.347172       -6.190275
 H         -11.848172      -35.174770       -6.652861
 H         -10.343216      -33.212803       -3.200681
 H          -9.006781      -34.004238       -3.728107
 H         -12.528964      -36.083664       -4.406775
 H         -12.710927      -34.514050       -3.790658
 H         -10.656538      -35.566689       -2.981276
 H         -10.016135      -35.849705       -4.549513
