20
 generated by VMD
 C         -56.082092     -149.987015      -47.468681
 N         -57.114433     -150.228058      -46.947338
 H         -53.203678     -147.946350      -47.466522
 H         -55.199932     -149.773026      -48.028687
 C         -53.767799     -147.712662      -48.406311
 C         -53.160950     -148.401505      -49.580254
 C         -54.679497     -146.496384      -48.495205
 C         -54.122330     -148.308563      -50.766426
 C         -55.452099     -146.298691      -49.773582
 C         -54.787090     -146.927521      -51.093105
 H         -53.099003     -149.603134      -49.380478
 H         -52.249702     -147.949173      -49.883114
 H         -55.253445     -146.631104      -47.551426
 H         -54.002769     -145.692703      -48.411911
 H         -54.945610     -149.052795      -50.654991
 H         -53.585960     -148.463425      -51.705112
 H         -55.630447     -145.269592      -49.997242
 H         -56.397953     -146.801468      -49.599358
 H         -55.640869     -147.092529      -51.812244
 H         -54.091518     -146.195663      -51.509018
