20
 generated by VMD
 C         -30.299751      -74.889061      -21.019199
 N         -31.293215      -75.429153      -20.739412
 H         -27.141727      -75.011673      -19.481371
 H         -29.411825      -74.479134      -21.670317
 C         -26.856825      -74.706490      -20.469301
 C         -26.616501      -75.842880      -21.354342
 C         -26.011024      -73.425346      -20.461161
 C         -26.058487      -75.475998      -22.640268
 C         -25.433369      -73.052071      -21.778837
 C         -24.939466      -74.457779      -22.483614
 H         -27.595533      -76.369064      -21.544199
 H         -25.852982      -76.287460      -20.795883
 H         -26.555910      -72.570580      -19.969387
 H         -25.183495      -73.691727      -19.674610
 H         -26.755444      -74.975517      -23.296995
 H         -25.736420      -76.363998      -23.161068
 H         -24.638176      -72.301758      -21.826180
 H         -26.328222      -72.647346      -22.288218
 H         -24.491741      -74.349586      -23.488571
 H         -24.061302      -74.759346      -21.880579
