20
 generated by VMD
 C         -23.228151      -54.197430      -15.060564
 N         -24.199795      -53.618664      -15.389628
 H         -19.401649      -54.603413      -15.708504
 H         -22.353441      -54.941914      -14.732593
 C         -19.472826      -55.165894      -14.694794
 C         -19.006641      -54.469986      -13.509124
 C         -19.220335      -56.640732      -14.974899
 C         -18.552439      -55.397850      -12.461718
 C         -18.200689      -57.286243      -13.920517
 C         -17.452837      -56.326160      -12.995015
 H         -19.785021      -53.864628      -13.141654
 H         -18.192509      -53.884613      -13.882494
 H         -20.094997      -57.309666      -15.063026
 H         -18.688208      -56.617771      -15.955869
 H         -19.413351      -55.943001      -12.032990
 H         -18.243410      -54.860466      -11.528992
 H         -17.442383      -57.894421      -14.517043
 H         -18.730871      -58.024174      -13.315380
 H         -16.930716      -56.919296      -12.228463
 H         -16.569405      -55.834396      -13.525686
