20
 generated by VMD
 C         -44.903454     -122.478111      -35.548428
 N         -45.095737     -123.465935      -34.909798
 H         -45.183327     -122.850693      -38.997169
 H         -44.480652     -121.680275      -36.094833
 C         -44.918842     -121.826042      -39.386318
 C         -43.564480     -121.336678      -39.628307
 C         -46.028217     -120.799240      -39.631184
 C         -43.321880     -120.405487      -40.818584
 C         -45.694321     -119.751747      -40.691189
 C         -44.301636     -119.212997      -40.658401
 H         -43.014324     -122.286324      -39.784103
 H         -42.993362     -120.908348      -38.888962
 H         -46.998997     -121.296562      -39.904617
 H         -46.141281     -120.313492      -38.614948
 H         -43.478252     -121.036263      -41.664608
 H         -42.224770     -120.086693      -40.752075
 H         -46.494427     -118.987328      -40.612640
 H         -45.779083     -120.437241      -41.661716
 H         -44.182964     -118.414391      -41.359570
 H         -44.215931     -118.822823      -39.646759
