20
 generated by VMD
 C         -21.696865      -65.931183      -16.850637
 N         -20.968376      -66.520798      -16.157940
 H         -24.194212      -64.090904      -18.260429
 H         -22.430655      -65.083206      -17.185959
 C         -24.393915      -65.107330      -18.440512
 C         -24.290064      -65.528015      -19.847843
 C         -25.496435      -65.752663      -17.575956
 C         -24.503859      -66.969482      -20.175943
 C         -25.229591      -67.232681      -17.661755
 C         -25.263897      -67.746292      -19.078377
 H         -23.340866      -65.049889      -20.266703
 H         -24.991259      -65.028664      -20.411564
 H         -25.435757      -65.295822      -16.598196
 H         -26.503475      -65.624146      -18.062420
 H         -23.449251      -67.348007      -20.359142
 H         -24.978434      -67.034271      -21.229889
 H         -26.031763      -67.784348      -17.173246
 H         -24.254559      -67.490799      -17.083532
 H         -25.096476      -68.819221      -19.182968
 H         -26.288294      -67.667717      -19.383226
