20
 generated by VMD
 C         -59.377682     -158.113022      -56.091438
 N         -58.919579     -158.649094      -57.079903
 H         -60.718609     -158.016953      -52.859974
 H         -59.728317     -157.701355      -55.132580
 C         -59.927959     -158.779373      -52.960125
 C         -58.590164     -158.544464      -52.575256
 C         -60.480545     -160.089172      -53.212379
 C         -58.019585     -159.595810      -51.589066
 C         -60.002243     -161.042038      -52.152485
 C         -58.455315     -161.011810      -52.008823
 H         -58.441803     -157.569824      -52.222031
 H         -57.926781     -158.627319      -53.417599
 H         -61.539562     -160.028427      -53.136776
 H         -60.329071     -160.332657      -54.292606
 H         -58.442997     -159.415985      -50.546619
 H         -57.018139     -159.534363      -51.462479
 H         -60.501228     -162.011703      -52.339954
 H         -60.353245     -160.749420      -51.138138
 H         -58.157005     -161.702560      -51.158714
 H         -57.936275     -161.407211      -52.833096
