20
 generated by VMD
 C         -12.024304      -39.571739       -6.794271
 N         -10.903141      -39.428497       -6.724665
 H         -12.917543      -41.084660       -9.155107
 H         -14.328390      -39.906059       -8.824317
 C         -14.045669      -40.936230       -9.048209
 C         -14.661320      -41.857048       -8.029492
 C         -14.551122      -41.232487      -10.479137
 C         -16.206553      -41.689442       -8.125633
 C         -16.140036      -41.366848      -10.589843
 C         -16.694983      -42.215927       -9.471642
 H         -14.429764      -41.511600       -7.001724
 H         -14.391985      -42.881344       -8.228364
 H         -14.239498      -40.401031      -11.170843
 H         -14.147220      -42.152790      -10.797186
 H         -16.411297      -40.617699       -8.060466
 H         -16.692104      -42.307117       -7.331768
 H         -16.393688      -41.590992      -11.573526
 H         -16.507717      -40.274502      -10.478987
 H         -17.836987      -42.203705       -9.497727
 H         -16.490067      -43.310574       -9.487413
