20
 generated by VMD
 C         -39.961155     -100.994110      -31.077408
 N         -40.412899      -99.966660      -31.453575
 H         -37.293896     -103.171669      -31.186293
 H         -39.477383     -101.908623      -30.615774
 C         -36.856777     -102.208344      -31.370901
 C         -36.323151     -101.695900      -32.672413
 C         -36.159996     -101.878349      -30.124714
 C         -36.035759     -100.224831      -32.457764
 C         -35.904682     -100.433762      -30.006388
 C         -35.204983      -99.888046      -31.288179
 H         -37.076103     -101.905556      -33.420811
 H         -35.408749     -102.284401      -32.786266
 H         -36.755634     -102.268387      -29.237925
 H         -35.251091     -102.444496      -30.002132
 H         -37.063534      -99.800728      -32.464352
 H         -35.459122      -99.908501      -33.334377
 H         -35.239761     -100.400551      -29.165312
 H         -36.890213      -99.892593      -29.705652
 H         -35.085670      -98.821198      -31.349283
 H         -34.228058     -100.285172      -31.311829
