20
 generated by VMD
 C         -18.196964      -49.275448       -8.264088
 N         -19.161757      -49.850594       -8.305054
 H         -16.372221      -47.693157       -9.880591
 H         -16.916019      -49.104294      -10.841915
 C         -16.564554      -48.017723      -10.915112
 C         -15.368297      -47.875343      -11.861147
 C         -17.744987      -47.228405      -11.547301
 C         -15.718967      -48.619030      -13.093642
 C         -17.987658      -47.567478      -13.019957
 C         -16.755732      -47.846912      -13.844020
 H         -14.508927      -48.338428      -11.336246
 H         -15.215652      -46.816788      -12.048203
 H         -18.681221      -47.527248      -11.085923
 H         -17.493931      -46.177574      -11.428565
 H         -16.204348      -49.552986      -12.756174
 H         -14.897520      -48.775417      -13.815197
 H         -18.573866      -46.784119      -13.478262
 H         -18.605057      -48.455662      -13.100733
 H         -17.035698      -48.439766      -14.770805
 H         -16.360788      -46.849205      -14.253954
