20
 generated by VMD
 C         -11.207113      -33.860298       -9.369786
 N         -11.334260      -33.906376       -8.230505
 H         -11.452424      -37.596092       -8.087152
 H         -11.923608      -36.868755       -6.524075
 C         -12.284188      -37.573170       -7.318285
 C         -12.219820      -38.910416       -6.522028
 C         -13.634078      -37.259308       -7.931861
 C         -13.341056      -39.029648       -5.540584
 C         -14.784626      -37.482166       -6.979523
 C         -14.722930      -38.766251       -6.168396
 H         -11.217572      -39.100914       -6.131232
 H         -12.383923      -39.733700       -7.206872
 H         -13.792816      -36.208508       -8.377539
 H         -13.802852      -37.880676       -8.812155
 H         -13.129319      -38.358070       -4.690042
 H         -13.380242      -40.005466       -5.079138
 H         -15.777624      -37.452694       -7.605122
 H         -14.780005      -36.620502       -6.337231
 H         -15.510443      -38.689991       -5.393841
 H         -14.965446      -39.658352       -6.786125
