20
 generated by VMD
 C          -1.774597      -16.522865        2.414878
 N          -1.993459      -15.446029        2.588969
 H          -4.219296      -15.913923        0.043928
 H          -4.591447      -17.036831       -1.253387
 C          -5.019648      -16.588737       -0.341129
 C          -6.254215      -15.828751       -0.744313
 C          -5.262191      -17.711134        0.618831
 C          -7.460793      -16.733727       -1.143915
 C          -6.503936      -18.588551        0.346271
 C          -7.733738      -17.704914       -0.018119
 H          -5.996694      -15.130568       -1.590559
 H          -6.585992      -15.266326        0.136693
 H          -4.303051      -18.367168        0.794028
 H          -5.584894      -17.190165        1.588815
 H          -7.242963      -17.324486       -1.998294
 H          -8.285840      -16.079899       -1.306610
 H          -6.718455      -19.147858        1.243920
 H          -6.352097      -19.313454       -0.471574
 H          -8.574877      -18.365622       -0.306979
 H          -8.065021      -17.238001        0.942104
