20
 generated by VMD
 C         -46.650700     -124.574158      -37.007347
 N         -46.961452     -124.963470      -35.952576
 H         -44.632557     -121.991211      -37.789085
 H         -46.524731     -124.444130      -38.035534
 C         -44.616714     -121.945625      -38.928978
 C         -43.395344     -121.945396      -39.748100
 C         -45.812229     -121.159950      -39.506870
 C         -43.618610     -122.291924      -41.193516
 C         -45.996750     -121.510422      -41.003361
 C         -44.662918     -121.147293      -41.740520
 H         -42.831932     -122.739922      -39.287956
 H         -42.832634     -120.892151      -39.806767
 H         -46.757359     -121.571365      -38.981159
 H         -45.822113     -120.072723      -39.305042
 H         -43.863907     -123.306320      -41.340340
 H         -42.723892     -122.091064      -41.693947
 H         -46.830349     -120.927567      -41.419476
 H         -46.230442     -122.531013      -41.252495
 H         -44.751205     -121.242241      -42.843422
 H         -44.308109     -120.062164      -41.649094
