20
 generated by VMD
 C          -1.684211       -8.668197        0.325321
 N          -2.330831       -9.186823       -0.412948
 H          -2.659530      -10.313276        2.536830
 H          -2.032511      -11.454084        3.755906
 C          -2.873852      -11.234687        3.053409
 C          -2.896110      -12.283027        1.982242
 C          -4.097927      -11.107670        3.882038
 C          -3.267037      -13.650925        2.594104
 C          -4.516537      -12.515857        4.376311
 C          -4.566566      -13.626354        3.384917
 H          -1.904220      -12.290298        1.482600
 H          -3.641095      -11.984210        1.271604
 H          -3.946140      -10.546099        4.790559
 H          -4.902508      -10.743002        3.365990
 H          -2.435225      -14.005846        3.182585
 H          -3.426361      -14.327103        1.760353
 H          -5.503096      -12.394179        4.902431
 H          -3.805454      -12.815730        5.164214
 H          -4.694710      -14.642410        3.873019
 H          -5.396990      -13.448374        2.628673
