20
 generated by VMD
 C         -22.721870      -52.415649      -11.987012
 N         -23.696705      -52.437988      -11.369465
 H         -19.855526      -53.598133      -14.351167
 H         -21.952055      -52.575180      -12.966605
 C         -18.856537      -53.368336      -14.125216
 C         -18.263876      -52.046021      -14.543966
 C         -18.091309      -54.409302      -13.238584
 C         -16.708092      -52.271137      -14.499440
 C         -17.079386      -53.708511      -12.395653
 C         -16.301212      -52.536755      -13.100300
 H         -18.515965      -51.234795      -13.821212
 H         -18.561180      -51.840061      -15.534804
 H         -18.812632      -54.859203      -12.594589
 H         -17.635668      -55.240482      -13.823180
 H         -16.330822      -51.286442      -14.827723
 H         -16.389944      -53.035820      -15.251801
 H         -16.378481      -54.413803      -11.887953
 H         -17.638462      -53.248638      -11.580990
 H         -16.490534      -51.689945      -12.456508
 H         -15.267710      -52.800522      -13.148134
