20
 generated by VMD
 C         -10.650027      -33.286480       -8.685633
 N         -11.429391      -33.554607       -9.412577
 H         -12.999304      -33.823910       -6.121531
 H         -13.017262      -34.603600       -4.549902
 C         -12.901018      -34.791122       -5.650525
 C         -11.527741      -35.429699       -5.932434
 C         -14.065144      -35.573555       -6.283783
 C         -11.456950      -36.901306       -5.509254
 C         -14.009299      -36.974075       -5.700775
 C         -12.677775      -37.643093       -6.036510
 H         -10.701619      -34.924744       -5.382963
 H         -11.215191      -35.359390       -6.967313
 H         -15.077130      -35.179031       -6.081263
 H         -13.993573      -35.503853       -7.392591
 H         -11.363151      -36.992016       -4.443640
 H         -10.531513      -37.343689       -5.881910
 H         -14.749559      -37.551594       -6.154112
 H         -14.234897      -37.015831       -4.585904
 H         -12.744466      -38.763165       -5.783398
 H         -12.561640      -37.595039       -7.128171
