20
 generated by VMD
 C         -38.751984      -99.056358      -27.199720
 N         -37.810814      -99.266190      -26.542686
 H         -37.208088      -97.227501      -30.214016
 H         -39.698154      -98.930359      -27.575279
 C         -36.224072      -96.960434      -30.539894
 C         -35.589195      -97.480164      -31.826181
 C         -35.292088      -96.442200      -29.487246
 C         -34.253437      -96.957268      -32.210285
 C         -34.263264      -95.477715      -30.051481
 C         -33.454407      -96.161133      -31.172110
 H         -36.322083      -97.201057      -32.614639
 H         -35.484573      -98.505051      -31.788364
 H         -35.767017      -96.030144      -28.559807
 H         -34.826252      -97.319695      -29.060890
 H         -34.189922      -96.261505      -33.097759
 H         -33.563499      -97.699654      -32.533051
 H         -33.737305      -94.983063      -29.289703
 H         -34.833427      -94.617760      -30.460188
 H         -32.730427      -95.622345      -31.798971
 H         -32.787495      -96.912666      -30.617664
