20
 generated by VMD
 C         -61.471371     -172.308273      -54.979435
 N         -60.525928     -173.038086      -55.146305
 H         -62.216164     -170.711945      -58.361958
 H         -62.406281     -171.822449      -54.758472
 C         -62.816711     -170.046417      -57.792671
 C         -62.639542     -168.651993      -57.639801
 C         -64.277969     -170.372589      -57.509232
 C         -63.374294     -167.813293      -58.618698
 C         -65.166351     -169.699127      -58.525673
 C         -64.957649     -168.107239      -58.695053
 H         -61.646301     -168.484070      -57.674915
 H         -62.938446     -168.386719      -56.521080
 H         -64.317482     -171.425232      -57.501503
 H         -64.466003     -170.101746      -56.486191
 H         -63.101612     -168.017883      -59.726818
 H         -63.197094     -166.711182      -58.486225
 H         -66.225212     -169.940582      -58.411259
 H         -64.998810     -170.177368      -59.493469
 H         -65.315643     -167.701965      -59.632145
 H         -65.415604     -167.522278      -57.871353
