20
 generated by VMD
 C         -68.190132     -185.315704      -67.720779
 N         -67.617157     -185.370834      -66.721268
 H         -69.704636     -186.838455      -64.911064
 H         -68.744026     -185.154297      -68.678429
 C         -69.735107     -186.675552      -63.860466
 C         -70.369980     -185.410812      -63.167950
 C         -69.559822     -187.802155      -62.927181
 C         -70.243752     -185.296799      -61.628101
 C         -68.969856     -187.495392      -61.601597
 C         -69.863289     -186.531433      -60.859989
 H         -71.447418     -185.521942      -63.358974
 H         -70.099815     -184.540100      -63.747944
 H         -70.439392     -188.438995      -62.713829
 H         -68.904961     -188.570877      -63.404850
 H         -71.029236     -184.677048      -61.200806
 H         -69.395470     -184.666245      -61.441730
 H         -68.004250     -186.853394      -61.750717
 H         -68.779877     -188.419174      -60.984653
 H         -70.771149     -187.189331      -60.587116
 H         -69.309555     -186.232162      -59.935379
