20
 generated by VMD
 C         -19.767822      -50.047340       -9.349620
 N         -19.675608      -51.188080       -9.677698
 H         -16.588810      -48.111347      -10.029836
 H         -20.173933      -49.044731       -9.187487
 C         -16.566702      -48.168144      -11.075997
 C         -15.549322      -49.083069      -11.687664
 C         -17.442970      -47.337158      -11.939390
 C         -16.228054      -49.965633      -12.753508
 C         -17.847515      -48.012753      -13.289864
 C         -16.881193      -49.068436      -13.852669
 H         -15.267969      -49.776608      -10.911502
 H         -14.657629      -48.482662      -11.969743
 H         -18.380796      -47.159943      -11.365267
 H         -16.969807      -46.361389      -12.136033
 H         -16.984505      -50.606045      -12.326515
 H         -15.459389      -50.609356      -13.189548
 H         -18.113750      -47.223019      -13.958773
 H         -18.755638      -48.584270      -13.134029
 H         -17.401003      -49.639938      -14.671748
 H         -16.071281      -48.460732      -14.380632
