20
 generated by VMD
 C         -58.934036     -152.405838      -50.683628
 N         -59.746372     -153.002365      -50.196922
 H         -57.184086     -151.251419      -49.004692
 H         -58.174019     -151.697220      -51.067810
 C         -56.280602     -150.990021      -49.491665
 C         -55.334122     -152.067551      -49.964951
 C         -55.576622     -149.776825      -49.340401
 C         -54.483490     -151.781586      -51.191994
 C         -54.833572     -149.327133      -50.588833
 C         -53.826530     -150.415192      -50.891354
 H         -55.909161     -152.895432      -50.173538
 H         -54.666718     -152.366272      -49.141693
 H         -56.264740     -148.978485      -49.009193
 H         -54.910698     -149.930984      -48.481194
 H         -55.203850     -151.723434      -52.038445
 H         -53.829998     -152.566376      -51.519176
 H         -54.081249     -148.569611      -50.090137
 H         -55.499138     -148.958191      -51.334251
 H         -53.234261     -150.193451      -51.851166
 H         -53.122372     -150.574829      -50.087173
