20
 generated by VMD
 C         -57.975761     -150.674652      -48.825024
 N         -58.013462     -151.803864      -48.642101
 H         -55.541046     -149.669144      -47.586380
 H         -57.745338     -149.627884      -48.915993
 C         -55.156452     -149.360092      -48.588673
 C         -54.382240     -150.350281      -49.455193
 C         -55.129330     -147.924576      -48.923172
 C         -54.207352     -149.836197      -51.008667
 C         -54.975521     -147.553375      -50.408226
 C         -53.770969     -148.294907      -51.106857
 H         -54.844738     -151.369461      -49.503872
 H         -53.356594     -150.604263      -48.897923
 H         -56.034389     -147.465302      -48.435459
 H         -54.415157     -147.341751      -48.378586
 H         -55.028217     -150.116959      -51.684109
 H         -53.406410     -150.527039      -51.270042
 H         -54.847336     -146.447586      -50.455082
 H         -55.749283     -148.001526      -51.018169
 H         -53.682281     -147.810257      -52.176079
 H         -52.884331     -148.096405      -50.495956
