20
 generated by VMD
 C         -79.660973     -207.006836      -73.655022
 N         -80.252480     -205.974625      -73.682274
 H         -78.168221     -205.121429      -70.589005
 H         -79.239418     -207.985077      -73.481468
 C         -77.146469     -205.304779      -70.317413
 C         -76.014992     -204.471130      -70.839569
 C         -76.784279     -206.646957      -69.695404
 C         -74.679886     -204.654587      -70.273170
 C         -75.396729     -206.760788      -69.141205
 C         -74.376404     -206.188629      -70.059471
 H         -76.368927     -203.372025      -70.842567
 H         -75.947807     -204.758072      -71.912300
 H         -77.647888     -206.844910      -68.982834
 H         -76.809113     -207.444687      -70.489174
 H         -74.587128     -204.070267      -69.368263
 H         -73.980255     -204.250565      -71.007248
 H         -75.221054     -207.868774      -69.099228
 H         -75.229019     -206.250488      -68.141785
 H         -73.398567     -206.468079      -69.603432
 H         -74.415565     -206.522766      -71.080437
