20
 generated by VMD
 C         -40.337540     -105.901436      -37.017971
 N         -39.947647     -106.798180      -37.677914
 H         -38.566971     -108.519272      -35.009548
 H         -40.544724     -105.062508      -36.403683
 C         -39.103043     -108.629028      -34.093643
 C         -38.543179     -109.478310      -33.142921
 C         -40.529091     -108.906433      -34.499546
 C         -39.374306     -109.808014      -31.945822
 C         -41.373653     -109.184288      -33.240253
 C         -40.793495     -110.384544      -32.403370
 H         -37.551022     -109.055786      -32.873795
 H         -38.166050     -110.380302      -33.610439
 H         -41.013210     -108.078033      -35.058472
 H         -40.564854     -109.828033      -35.108753
 H         -39.275265     -108.905945      -31.334322
 H         -38.884060     -110.648979      -31.314472
 H         -42.371204     -109.519753      -33.579853
 H         -41.516300     -108.288216      -32.587639
 H         -41.440556     -110.600197      -31.482273
 H         -40.687126     -111.287224      -32.940350
