20
 generated by VMD
 C         -10.164955      -36.865150       -7.217544
 N         -10.384556      -36.455154       -8.258495
 H         -13.505657      -37.866486       -7.950223
 H         -14.520891      -38.317410       -6.607442
 C         -14.121199      -38.656151       -7.618184
 C         -13.400578      -40.022541       -7.583411
 C         -15.252991      -38.661369       -8.649056
 C         -14.348280      -41.199669       -7.406565
 C         -16.204754      -39.839317       -8.467570
 C         -15.421076      -41.186203       -8.459072
 H         -12.601374      -40.051270       -6.808471
 H         -12.928587      -40.056221       -8.603471
 H         -15.811112      -37.731426       -8.577140
 H         -14.796779      -38.755520       -9.655633
 H         -14.832104      -41.243729       -6.467318
 H         -13.741950      -42.111034       -7.513548
 H         -16.924271      -39.938374       -9.229259
 H         -16.725069      -39.819904       -7.468770
 H         -16.138416      -41.985413       -8.180937
 H         -15.099010      -41.367733       -9.509620
