20
 generated by VMD
 C         -78.220802     -204.110718      -69.202431
 N         -79.123352     -203.987946      -69.967331
 H         -75.928291     -202.633362      -67.781845
 H         -77.370712     -204.233612      -68.450859
 C         -75.208794     -202.064743      -68.444756
 C         -75.364960     -200.698898      -68.941093
 C         -74.032486     -202.873566      -68.881187
 C         -74.742622     -200.559341      -70.354446
 C         -72.924812     -202.092117      -69.722008
 C         -73.444199     -201.082947      -70.722740
 H         -74.885635     -200.015671      -68.177383
 H         -76.378189     -200.396561      -69.073822
 H         -73.509834     -203.166840      -68.014671
 H         -74.471962     -203.640472      -69.508835
 H         -74.710831     -199.505371      -70.573448
 H         -75.453804     -200.809128      -71.173058
 H         -72.105843     -202.690735      -70.198814
 H         -72.542183     -201.437958      -68.925293
 H         -72.708237     -200.157150      -70.893021
 H         -73.525368     -201.556030      -71.776215
