20
 generated by VMD
 C         -56.289040     -150.018005      -46.724827
 N         -56.969734     -150.498856      -45.907463
 H         -53.417080     -147.720428      -47.595173
 H         -55.528385     -149.690536      -47.438889
 C         -53.762680     -147.490143      -48.638729
 C         -52.962334     -147.871796      -49.845543
 C         -54.528477     -146.159866      -48.617867
 C         -53.919388     -147.695297      -50.976234
 C         -55.324684     -146.108582      -49.876392
 C         -54.570969     -146.313614      -51.045830
 H         -52.757259     -148.906647      -49.833813
 H         -51.977585     -147.247833      -49.765495
 H         -55.161633     -146.213486      -47.737572
 H         -53.797863     -145.258057      -48.616528
 H         -54.703102     -148.419159      -51.087589
 H         -53.317875     -147.697983      -51.878014
 H         -55.874119     -145.095200      -49.932995
 H         -56.194672     -146.697510      -49.886608
 H         -55.200867     -146.127182      -51.922009
 H         -53.728065     -145.577820      -51.149708
