20
 generated by VMD
 C         -69.187630     -194.776871      -65.312653
 N         -68.513443     -194.017807      -64.767876
 H         -71.513474     -193.749817      -68.349724
 H         -69.943542     -195.469528      -65.789375
 C         -72.050209     -193.645065      -67.375877
 C         -71.605133     -192.565857      -66.452385
 C         -73.379066     -194.300293      -67.118446
 C         -72.651787     -192.192627      -65.437149
 C         -74.402298     -193.207779      -67.097237
 C         -74.040070     -192.080704      -66.033607
 H         -71.424583     -191.727844      -67.105423
 H         -70.680237     -192.768616      -66.080017
 H         -73.696724     -195.053284      -67.879738
 H         -73.308784     -194.903824      -66.297371
 H         -72.372147     -191.316330      -64.913818
 H         -72.572723     -193.046448      -64.761391
 H         -75.410637     -193.567429      -66.899673
 H         -74.434990     -192.792145      -68.109108
 H         -74.343994     -191.104431      -66.602219
 H         -74.755684     -192.154083      -65.191338
