20
 generated by VMD
 C         -57.541805     -165.973694      -56.583504
 N         -58.070786     -166.834991      -55.942154
 H         -60.721416     -164.992081      -54.412888
 H         -57.171021     -165.079147      -57.068039
 C         -61.638191     -165.337677      -54.915489
 C         -61.842621     -166.669342      -55.490681
 C         -62.392555     -164.209015      -55.418243
 C         -63.301567     -167.014572      -55.807404
 C         -63.855591     -164.644135      -55.653332
 C         -63.987526     -165.857101      -56.598171
 H         -61.267910     -167.392456      -54.886822
 H         -61.166260     -166.723145      -56.400696
 H         -62.342102     -163.301163      -54.834862
 H         -61.889069     -164.017471      -56.354549
 H         -63.809353     -167.173996      -54.908581
 H         -63.265919     -167.893906      -56.435032
 H         -64.530495     -163.786240      -55.936569
 H         -64.374237     -164.842621      -54.710468
 H         -65.065147     -166.153900      -56.758320
 H         -63.486252     -165.688141      -57.574047
