20
 generated by VMD
 C         -51.989540     -129.934158      -45.287712
 N         -51.715206     -129.640350      -46.360176
 H         -48.689644     -130.121063      -43.237404
 H         -51.858540     -130.156769      -44.217861
 C         -47.885601     -130.190475      -42.468266
 C         -47.874268     -131.531967      -41.791275
 C         -47.306881     -129.012527      -41.625347
 C         -46.578522     -131.842728      -41.005520
 C         -46.058529     -129.366638      -40.837124
 C         -46.232227     -130.687637      -40.075645
 H         -48.091232     -132.318054      -42.555450
 H         -48.805458     -131.565369      -41.084324
 H         -47.076256     -128.254272      -42.434299
 H         -48.148182     -128.691727      -41.026859
 H         -45.741650     -132.216187      -41.695576
 H         -46.743057     -132.838272      -40.541626
 H         -45.965141     -128.655273      -39.930294
 H         -45.078800     -129.292358      -41.468464
 H         -45.308868     -130.935577      -39.569603
 H         -47.109287     -130.595779      -39.374462
