20
 generated by VMD
 C         -28.050203      -81.924614      -26.482697
 N         -28.112915      -82.324860      -27.599752
 H         -30.704016      -83.877525      -26.362457
 H         -28.019802      -81.525871      -25.523483
 C         -31.053883      -84.465294      -25.529312
 C         -30.717838      -84.284767      -24.001493
 C         -31.874458      -85.778450      -25.965208
 C         -31.815477      -84.752190      -23.124714
 C         -32.916870      -86.143181      -24.819607
 C         -32.279602      -86.144913      -23.481087
 H         -30.369141      -83.295052      -23.901966
 H         -29.776428      -84.859512      -23.716434
 H         -32.362736      -85.643539      -26.920551
 H         -31.226961      -86.641373      -26.069008
 H         -32.634411      -84.136681      -23.062092
 H         -31.447264      -84.911903      -22.038149
 H         -33.185768      -87.164726      -25.155260
 H         -33.724728      -85.537231      -24.863712
 H         -32.943008      -86.586952      -22.757858
 H         -31.378967      -86.769417      -23.600780
