20
 generated by VMD
 C         -29.871424      -79.311096      -26.137325
 N         -30.806776      -78.659592      -25.935621
 H         -29.038044      -82.827423      -25.788044
 H         -28.911688      -79.942863      -26.063721
 C         -29.017275      -82.950005      -24.730547
 C         -28.415556      -82.088570      -23.764761
 C         -29.782629      -84.017624      -24.061062
 C         -29.376720      -81.386337      -22.818359
 C         -30.980110      -83.435730      -23.270374
 C         -30.538269      -82.417999      -22.141268
 H         -27.882307      -81.339394      -24.232927
 H         -27.706097      -82.711418      -23.248795
 H         -30.182426      -84.703896      -24.877199
 H         -29.193354      -84.662529      -23.404598
 H         -29.964565      -80.680969      -23.504154
 H         -29.058949      -80.793526      -22.037613
 H         -31.568504      -84.229568      -22.737499
 H         -31.694901      -82.984756      -24.015713
 H         -31.266115      -81.751671      -21.594912
 H         -30.024082      -83.000557      -21.249168
