20
 generated by VMD
 C         -68.513405     -185.650711      -66.123619
 N         -69.011971     -186.054169      -67.102821
 H         -69.273361     -183.175400      -63.749485
 H         -68.002113     -185.207016      -65.214081
 C         -69.244499     -183.845612      -62.902962
 C         -70.373596     -184.735138      -62.507816
 C         -67.907478     -183.740936      -62.191944
 C         -69.955132     -185.863663      -61.554466
 C         -67.803001     -184.833542      -61.168385
 C         -68.447609     -186.134155      -61.516850
 H         -70.795670     -185.099945      -63.427559
 H         -71.136116     -184.094696      -62.113216
 H         -67.007866     -183.684555      -62.800289
 H         -67.834526     -182.796371      -61.597588
 H         -70.490356     -186.685043      -62.000031
 H         -70.321503     -185.656006      -60.532566
 H         -68.123863     -184.478516      -60.146381
 H         -66.716072     -185.010880      -60.995678
 H         -68.156502     -186.391998      -62.435230
 H         -68.235931     -186.852020      -60.718422
