20
 generated by VMD
 C         -57.803825     -167.976486      -55.194248
 N         -56.720501     -168.360748      -54.909431
 H         -61.201023     -166.665054      -55.554119
 H         -58.773857     -167.697464      -55.525513
 C         -62.141506     -166.507538      -56.032948
 C         -62.575726     -167.352142      -57.195042
 C         -63.070717     -165.377243      -55.538204
 C         -64.107224     -167.435928      -57.420952
 C         -64.515770     -165.505005      -55.865139
 C         -64.601273     -166.084045      -57.257839
 H         -62.158928     -168.344574      -56.833557
 H         -62.051571     -166.933502      -58.076725
 H         -63.031631     -165.289932      -54.393631
 H         -62.708958     -164.353958      -55.864723
 H         -64.594315     -168.222137      -56.763302
 H         -64.282188     -167.742020      -58.480354
 H         -64.984428     -164.617096      -55.811646
 H         -64.906479     -166.307266      -55.291805
 H         -65.674988     -166.054123      -57.384338
 H         -64.195854     -165.360001      -57.931355
