20
 generated by VMD
 C         -25.815977      -71.194351      -17.012825
 N         -25.864256      -71.959381      -16.116829
 H         -24.163568      -68.790901      -18.655571
 H         -25.552546      -70.602150      -17.840492
 C         -24.569708      -69.187866      -19.618755
 C         -23.856245      -70.280998      -20.476389
 C         -25.865643      -68.537682      -20.079237
 C         -24.916370      -71.147789      -21.343746
 C         -26.839359      -69.384880      -20.878256
 C         -26.114948      -70.280418      -21.920589
 H         -23.248003      -70.987549      -19.971291
 H         -23.051413      -69.843651      -21.154657
 H         -26.367249      -68.188683      -19.220665
 H         -25.445440      -67.754486      -20.723392
 H         -25.327152      -71.872101      -20.574705
 H         -24.400728      -71.792465      -22.043680
 H         -27.458097      -68.627380      -21.415991
 H         -27.376595      -70.116821      -20.250767
 H         -26.964598      -70.811333      -22.443134
 H         -25.600079      -69.505272      -22.567675
