20
 generated by VMD
 C         -50.135044     -144.845383      -44.465649
 N         -49.341793     -143.977463      -44.723137
 H         -52.562931     -142.293503      -45.721546
 H         -50.773693     -145.747284      -44.294430
 C         -53.167908     -142.205872      -46.624561
 C         -52.397690     -142.414932      -48.009693
 C         -54.482464     -141.659622      -46.531624
 C         -53.303326     -142.672485      -49.196613
 C         -55.345333     -142.137802      -47.812023
 C         -54.582840     -141.786331      -49.084373
 H         -51.642487     -143.169891      -47.988472
 H         -51.962505     -141.376144      -48.077049
 H         -54.965500     -142.116669      -45.650036
 H         -54.463718     -140.478348      -46.475498
 H         -53.484604     -143.833862      -49.051956
 H         -52.953392     -142.486160      -50.270077
 H         -56.329754     -141.703354      -47.741020
 H         -55.573387     -143.259796      -47.792690
 H         -55.216255     -141.931595      -50.038116
 H         -54.236118     -140.648621      -49.081966
