20
 generated by VMD
 C         -10.446364      -33.058815       -8.959628
 N         -11.086270      -33.877022       -9.352952
 H         -13.182321      -33.941154       -6.191516
 H         -13.081527      -34.838669       -4.681571
 C         -13.066795      -34.968288       -5.791525
 C         -11.686180      -35.608086       -6.014802
 C         -14.308230      -35.714447       -6.121746
 C         -11.674120      -37.092804       -5.525578
 C         -14.116110      -37.228176       -5.833738
 C         -12.765244      -37.846279       -6.161620
 H         -10.854208      -34.984890       -5.544137
 H         -11.502233      -35.632465       -7.093199
 H         -15.205289      -35.434322       -5.594183
 H         -14.428886      -35.634991       -7.217236
 H         -11.763282      -37.074333       -4.453292
 H         -10.692666      -37.491528       -5.767801
 H         -14.849398      -37.721260       -6.429231
 H         -14.360292      -37.437675       -4.714125
 H         -12.872960      -38.904251       -5.788617
 H         -12.615428      -37.835869       -7.241862
