20
 generated by VMD
 C         -49.982784     -143.182480      -44.746315
 N         -49.124771     -143.374908      -45.472301
 H         -51.943867     -140.916046      -45.510307
 H         -50.698433     -142.849869      -44.053989
 C         -52.641438     -141.117111      -46.296566
 C         -52.176937     -141.310226      -47.632610
 C         -54.099632     -140.969772      -46.051220
 C         -53.032967     -142.236404      -48.548851
 C         -54.958317     -141.802002      -47.004505
 C         -54.481857     -141.707321      -48.483109
 H         -51.199574     -141.873123      -47.562222
 H         -52.016315     -140.397766      -48.213634
 H         -54.294418     -141.287216      -44.986664
 H         -54.176941     -139.816635      -46.250797
 H         -53.013824     -143.208755      -48.295944
 H         -52.582413     -142.132965      -49.520905
 H         -56.033089     -141.663483      -47.072075
 H         -54.801159     -142.745926      -46.557331
 H         -55.146446     -142.181122      -49.172596
 H         -54.623840     -140.741592      -48.924988
