20
 generated by VMD
 C         -13.896204      -28.078636       -2.950105
 N         -14.049014      -27.164913       -3.578272
 H         -10.429637      -28.116259       -3.089359
 H          -9.794784      -27.059401       -4.277983
 C          -9.468325      -27.779911       -3.543850
 C          -8.901855      -29.009275       -4.275602
 C          -8.432671      -27.162500       -2.640506
 C          -7.620027      -28.572718       -5.006420
 C          -7.184183      -26.774464       -3.352649
 C          -6.602531      -27.945095       -4.064225
 H          -9.665162      -29.469215       -4.840839
 H          -8.627568      -29.843273       -3.500685
 H          -8.843093      -26.347294       -2.021477
 H          -8.212940      -27.961069       -1.861579
 H          -7.880344      -27.849970       -5.767731
 H          -7.102177      -29.335009       -5.516415
 H          -6.491764      -26.355961       -2.604701
 H          -7.366451      -25.905722       -4.042069
 H          -5.742575      -27.556700       -4.620905
 H          -6.306702      -28.783976       -3.374463
