20
 generated by VMD
 C         -78.519501     -209.151199      -77.121376
 N         -78.014435     -209.464264      -78.124374
 H         -79.187263     -211.506699      -74.076157
 H         -79.065964     -208.800278      -76.177414
 C         -79.197533     -212.108856      -73.129387
 C         -78.006920     -212.080429      -72.178123
 C         -80.370598     -212.974686      -72.857101
 C         -78.163597     -212.618500      -70.695213
 C         -80.696701     -213.093628      -71.308044
 C         -79.260727     -213.610641      -70.691872
 H         -77.635040     -211.090607      -72.221039
 H         -77.168411     -212.648834      -72.557442
 H         -81.261040     -212.569641      -73.324692
 H         -80.129829     -213.954147      -73.214729
 H         -78.369591     -211.710190      -70.115524
 H         -77.270638     -213.088455      -70.251022
 H         -81.504120     -213.945236      -71.108543
 H         -80.922691     -212.107178      -70.936485
 H         -79.517799     -213.791504      -69.691055
 H         -78.940926     -214.528442      -71.186798
