20
 generated by VMD
 C         -38.816978     -115.754745      -35.380291
 N         -39.402012     -115.367958      -34.448528
 H         -41.359245     -115.447083      -37.160667
 H         -38.582939     -116.246086      -36.335274
 C         -42.370399     -115.687073      -37.308849
 C         -42.968460     -115.540421      -38.676666
 C         -43.401703     -115.594376      -36.203941
 C         -44.266525     -116.312454      -38.852760
 C         -44.756283     -116.208046      -36.452099
 C         -45.311543     -115.841782      -37.821285
 H         -42.283829     -115.796227      -39.549683
 H         -43.207706     -114.427261      -38.824890
 H         -42.943115     -116.116730      -35.370609
 H         -43.408295     -114.500343      -36.057053
 H         -43.979027     -117.327217      -38.895878
 H         -44.758106     -116.124725      -39.864994
 H         -45.321491     -115.866920      -35.580406
 H         -44.723202     -117.354790      -36.423496
 H         -46.244114     -116.450752      -38.114819
 H         -45.597614     -114.696022      -38.015583
