20
 generated by VMD
 C         -21.920120      -55.522926      -17.536482
 N         -21.110086      -55.789288      -18.254219
 H         -21.648655      -56.934547      -14.211797
 H         -22.921036      -55.129597      -17.090784
 C         -21.484449      -58.020058      -14.328989
 C         -21.387966      -58.788433      -13.141117
 C         -21.290451      -58.783592      -15.648326
 C         -21.007315      -60.281330      -13.353882
 C         -20.315977      -59.972500      -15.690788
 C         -19.759533      -60.420773      -14.319893
 H         -22.428555      -58.752628      -12.650506
 H         -20.663080      -58.324123      -12.455111
 H         -22.173044      -59.218834      -16.046188
 H         -21.025503      -58.066010      -16.403545
 H         -21.827620      -60.854149      -13.749338
 H         -20.831123      -60.668259      -12.392865
 H         -19.470289      -59.603367      -16.312794
 H         -20.667093      -60.808044      -16.296806
 H         -19.228004      -61.453773      -14.359710
 H         -19.051987      -59.634796      -13.973957
