20
 generated by VMD
 C         -49.065971     -126.804031      -38.761124
 N         -49.922100     -127.487602      -38.417427
 H         -46.442673     -124.222107      -38.926403
 H         -48.305660     -126.293152      -39.280586
 C         -45.636570     -123.887787      -39.493877
 C         -44.550968     -124.819931      -39.813892
 C         -45.972607     -122.614410      -40.342777
 C         -43.813980     -124.639305      -41.198051
 C         -45.231522     -122.523376      -41.664097
 C         -43.923424     -123.185432      -41.710934
 H         -44.722706     -125.829590      -39.613972
 H         -43.862694     -124.591515      -38.962147
 H         -47.146935     -122.607643      -40.458443
 H         -45.648109     -121.818954      -39.659264
 H         -44.448280     -125.239319      -41.891106
 H         -42.772114     -124.976944      -41.154598
 H         -44.997398     -121.428474      -41.890480
 H         -45.735073     -123.059372      -42.537464
 H         -43.496902     -123.072861      -42.714424
 H         -43.296494     -122.667252      -40.957832
