20
 generated by VMD
 C          -2.743944      -17.924442        2.744945
 N          -2.212373      -17.340960        1.958188
 H          -5.270498      -18.621584        0.954235
 H          -5.255340      -19.637247       -0.462908
 C          -5.816357      -18.862425        0.062411
 C          -5.747336      -17.586830       -0.844140
 C          -7.250661      -19.350552        0.299795
 C          -6.557008      -17.895800       -2.055575
 C          -8.156779      -19.458099       -0.903486
 C          -7.955539      -18.284300       -1.771034
 H          -4.675617      -17.392504       -0.973518
 H          -6.129113      -16.721933       -0.262684
 H          -7.180903      -20.353867        0.816425
 H          -7.812808      -18.692633        1.108258
 H          -6.098392      -18.631311       -2.753853
 H          -6.603212      -17.005033       -2.708562
 H          -9.196781      -19.614288       -0.714649
 H          -7.870832      -20.384729       -1.385964
 H          -8.551844      -18.313915       -2.694693
 H          -8.364258      -17.467539       -1.186963
