20
 generated by VMD
 C         -38.498837      -98.758682      -27.710964
 N         -38.054855      -99.486572      -26.922691
 H         -37.290459      -97.647278      -30.391605
 H         -38.760082      -97.994278      -28.344784
 C         -36.284473      -97.423920      -30.591543
 C         -35.516060      -97.978889      -31.830751
 C         -35.635227      -96.637573      -29.507082
 C         -34.530762      -96.913780      -32.247887
 C         -34.266277      -96.024323      -29.808899
 C         -33.586632      -96.554321      -31.156353
 H         -36.039162      -98.270874      -32.691868
 H         -34.899319      -98.804565      -31.486158
 H         -36.340042      -95.859367      -29.340490
 H         -35.627712      -97.127579      -28.538755
 H         -35.057049      -96.002937      -32.702610
 H         -33.890446      -97.356018      -33.076012
 H         -33.597469      -96.121239      -28.975210
 H         -34.406940      -94.950661      -29.826605
 H         -32.804005      -95.779167      -31.536928
 H         -33.041592      -97.421158      -30.875898
