20
 generated by VMD
 C         -38.182537     -114.830597      -35.389877
 N         -39.069149     -115.264359      -34.780415
 H         -41.557419     -115.028877      -36.686401
 H         -37.460335     -114.627853      -36.208485
 C         -42.436779     -115.446983      -36.997864
 C         -42.897396     -115.187675      -38.415482
 C         -43.443600     -115.155685      -35.960445
 C         -44.151180     -115.985756      -38.728703
 C         -44.799114     -115.844421      -36.209194
 C         -45.239185     -115.779419      -37.673214
 H         -42.106350     -115.657303      -39.085693
 H         -43.096462     -114.127243      -38.730289
 H         -42.909760     -115.548439      -34.969944
 H         -43.518967     -114.024391      -35.685684
 H         -43.992916     -117.084358      -38.726646
 H         -44.530392     -115.673233      -39.654568
 H         -45.701370     -115.591133      -35.509121
 H         -44.697388     -116.971626      -36.007187
 H         -46.081429     -116.427437      -37.740955
 H         -45.577991     -114.560814      -37.685818
