20
 generated by VMD
 C         -69.904709     -183.052734      -65.920052
 N         -71.057091     -183.026764      -65.715271
 H         -67.093895     -183.284164      -63.164581
 H         -68.861694     -183.149811      -66.173691
 C         -67.334671     -182.872803      -62.207123
 C         -67.702599     -183.595840      -61.013336
 C         -67.372551     -181.376221      -61.963787
 C         -66.958611     -183.174942      -59.773048
 C         -66.375916     -180.994858      -60.903111
 C         -66.714371     -181.679031      -59.613441
 H         -67.606010     -184.677963      -61.173660
 H         -68.775665     -183.645630      -60.646194
 H         -67.123123     -180.700180      -62.886700
 H         -68.391663     -181.089981      -61.637310
 H         -65.909286     -183.501373      -59.681656
 H         -67.429199     -183.714874      -58.880825
 H         -66.388321     -179.885925      -60.851631
 H         -65.346802     -181.315887      -61.176052
 H         -65.787186     -181.447876      -58.898361
 H         -67.550766     -181.205780      -59.096329
