20
 generated by VMD
 C         -22.790297      -52.355522      -11.903831
 N         -22.725838      -52.581120      -10.773078
 H         -19.878153      -52.797607      -14.248886
 H         -22.648159      -52.082695      -12.792433
 C         -18.901670      -52.549137      -13.863009
 C         -18.001524      -51.886517      -14.867320
 C         -18.389750      -53.372982      -12.740533
 C         -16.517912      -52.200562      -14.592534
 C         -17.057558      -52.868900      -12.143450
 C         -16.137865      -52.176243      -13.106412
 H         -18.222956      -50.857941      -14.843714
 H         -18.187696      -52.180859      -15.903977
 H         -19.133858      -53.571133      -11.935101
 H         -18.198849      -54.326183      -13.202727
 H         -16.027229      -51.404373      -15.182113
 H         -16.261599      -53.130898      -15.147291
 H         -16.563477      -53.603374      -11.610150
 H         -17.276388      -52.140438      -11.312096
 H         -15.909703      -51.174313      -12.752481
 H         -15.172249      -52.708065      -13.107061
