20
 generated by VMD
 C         -49.630257     -127.745667      -40.189194
 N         -50.585583     -127.733337      -40.885246
 H         -47.354588     -127.440109      -42.085194
 H         -48.683716     -127.694626      -39.630653
 C         -46.726406     -126.837334      -41.478577
 C         -45.876492     -127.254089      -40.329273
 C         -46.829273     -125.238609      -41.540203
 C         -44.400089     -126.670235      -40.528084
 C         -45.432011     -124.648438      -41.762745
 C         -44.463898     -125.223587      -40.736488
 H         -45.795643     -128.312378      -40.335033
 H         -46.146721     -126.849716      -39.331581
 H         -47.604992     -124.890755      -42.292469
 H         -47.278534     -124.885956      -40.677826
 H         -43.948086     -127.416733      -41.192589
 H         -43.872044     -126.722481      -39.542934
 H         -45.597168     -123.535286      -41.800976
 H         -45.091888     -124.909607      -42.837872
 H         -43.519981     -124.810463      -40.945717
 H         -44.705833     -124.696968      -39.823200
