20
 generated by VMD
 C         -60.191559     -153.296326      -51.833004
 N         -60.269699     -152.278763      -51.359715
 H         -57.263103     -153.849503      -49.942055
 H         -60.138073     -154.303085      -52.123676
 C         -56.398136     -153.194366      -50.124802
 C         -55.160828     -153.402496      -49.321007
 C         -56.686638     -151.831497      -50.780155
 C         -54.036045     -152.858597      -50.268036
 C         -55.530869     -151.201996      -51.572258
 C         -54.285133     -151.367828      -50.747585
 H         -55.150021     -154.477097      -49.057957
 H         -55.119720     -152.689468      -48.486732
 H         -57.540493     -151.979324      -51.499954
 H         -57.071823     -151.111115      -50.073708
 H         -54.093510     -153.460861      -51.162624
 H         -53.047295     -152.871033      -49.720528
 H         -55.964252     -150.111954      -51.853165
 H         -55.429619     -151.620804      -52.588444
 H         -53.451000     -151.021713      -51.414631
 H         -54.544266     -150.719681      -49.947163
