20
 generated by VMD
 C         -12.383943      -31.819717       -8.863868
 N         -12.583966      -30.787987       -8.473617
 H         -10.542652      -34.776070       -7.510848
 H         -11.628338      -33.826244       -6.601407
 C         -11.152005      -34.800278       -6.648814
 C         -10.359197      -35.014191       -5.371164
 C         -12.384645      -35.756603       -6.754981
 C         -11.148355      -35.031883       -4.118072
 C         -13.215281      -35.774734       -5.438989
 C         -12.330687      -35.972374       -4.183548
 H          -9.540177      -34.256203       -5.332979
 H          -9.781786      -35.925404       -5.475831
 H         -12.964554      -35.422432       -7.631226
 H         -11.998214      -36.737022       -7.024207
 H         -11.541754      -34.022388       -3.858512
 H         -10.415846      -35.202202       -3.286976
 H         -14.117498      -36.421078       -5.425954
 H         -13.643001      -34.716415       -5.299947
 H         -12.910944      -35.835983       -3.211161
 H         -11.989269      -36.988178       -4.259672
