20
 generated by VMD
 C         -60.037766     -157.386673      -56.409473
 N         -59.422264     -158.413452      -56.501465
 H         -60.064278     -157.428116      -53.372738
 H         -60.640804     -156.463806      -56.263790
 C         -59.569767     -158.253006      -52.869469
 C         -58.107693     -157.913406      -52.311081
 C         -59.916725     -159.695267      -53.164978
 C         -57.778648     -158.977203      -51.151840
 C         -59.456486     -160.725998      -52.058151
 C         -58.047977     -160.397461      -51.582642
 H         -57.843765     -156.875305      -52.020885
 H         -57.453117     -158.096436      -53.200802
 H         -60.938446     -159.864197      -53.195381
 H         -59.332199     -159.971069      -54.059330
 H         -58.401707     -158.941666      -50.202747
 H         -56.776020     -158.869507      -50.886669
 H         -59.652298     -161.754166      -52.440826
 H         -60.081364     -160.591537      -51.187336
 H         -57.684273     -161.153000      -50.807995
 H         -57.427090     -160.646179      -52.463875
