20
 generated by VMD
 C         -39.148109      -98.933998      -27.917311
 N         -38.577538      -99.906479      -27.652588
 H         -37.408676      -98.212975      -30.659184
 H         -39.469040      -97.972527      -28.339340
 C         -36.393684      -98.075142      -30.678862
 C         -35.715626      -98.229919      -32.051895
 C         -35.730797      -97.392044      -29.554216
 C         -34.407692      -97.476738      -32.301807
 C         -34.383259      -96.570061      -29.984509
 C         -33.546337      -97.154907      -31.098398
 H         -36.321537      -97.794655      -32.901970
 H         -35.561401      -99.241989      -32.362404
 H         -36.360332      -96.584740      -29.131708
 H         -35.555092      -98.104332      -28.809769
 H         -34.484112      -96.740387      -33.051521
 H         -33.641769      -98.104660      -32.848934
 H         -33.774902      -96.549812      -29.091158
 H         -34.636967      -95.579765      -30.162041
 H         -32.753006      -96.485756      -31.260160
 H         -33.022614      -98.160416      -30.767637
