20
 generated by VMD
 C         -29.130930      -80.600945      -27.114525
 N         -30.041012      -80.209854      -27.718231
 H         -28.507982      -82.407127      -24.336645
 H         -28.270256      -80.941566      -26.479465
 C         -29.156202      -83.132103      -23.954765
 C         -29.438107      -83.210831      -22.459240
 C         -29.974848      -83.964432      -24.910780
 C         -31.001524      -83.297691      -22.214188
 C         -31.492653      -84.081444      -24.609652
 C         -31.706928      -84.347832      -23.091383
 H         -29.023384      -82.263756      -21.992443
 H         -28.879156      -84.014542      -22.094881
 H         -29.917156      -83.536240      -25.911951
 H         -29.492102      -84.908897      -25.039238
 H         -31.484344      -82.373047      -22.465832
 H         -31.202696      -83.457146      -21.154072
 H         -31.961716      -84.882645      -25.204676
 H         -32.015816      -83.150459      -24.955873
 H         -32.761192      -84.468201      -22.765989
 H         -31.255678      -85.232368      -22.832968
