20
 generated by VMD
 C          -2.567335       -9.010838        0.385286
 N          -1.595719       -9.438387       -0.000766
 H          -2.359411      -11.770887        2.582700
 H          -3.200676      -12.239535        4.089326
 C          -3.105308      -12.497441        3.001880
 C          -2.739826      -13.935312        2.605542
 C          -4.443927      -12.161429        2.270354
 C          -3.840448      -14.938736        3.098339
 C          -5.603634      -13.078974        2.612856
 C          -5.198448      -14.561262        2.497694
 H          -1.789269      -14.295177        3.069418
 H          -2.651476      -14.045770        1.465896
 H          -4.687453      -11.171206        2.693089
 H          -4.232774      -11.997693        1.204109
 H          -3.893646      -14.909328        4.204437
 H          -3.680539      -16.012413        2.813583
 H          -6.474854      -12.842885        1.974639
 H          -5.894039      -12.956876        3.659529
 H          -5.972321      -15.215776        2.815142
 H          -5.149612      -14.705837        1.422436
