20
 generated by VMD
 C         -57.948082     -165.583191      -56.360291
 N         -57.248188     -165.027298      -57.057449
 H         -60.261040     -164.626877      -54.342041
 H         -58.550217     -166.151779      -55.644356
 C         -61.320358     -164.880447      -54.658653
 C         -61.899536     -166.214996      -54.414135
 C         -61.849495     -163.890350      -55.675446
 C         -63.339661     -166.329910      -54.712391
 C         -63.332703     -164.040466      -55.751743
 C         -63.750706     -165.491089      -55.975334
 H         -61.819180     -166.489944      -53.278103
 H         -61.431717     -166.883224      -55.173199
 H         -61.542645     -162.821350      -55.425449
 H         -61.372429     -164.145432      -56.694408
 H         -64.021019     -165.954987      -53.825806
 H         -63.695007     -167.427765      -54.873905
 H         -63.462692     -163.544067      -56.710457
 H         -63.766884     -163.618362      -54.874512
 H         -64.830132     -165.540344      -56.140907
 H         -63.385941     -165.951370      -56.884571
