20
 generated by VMD
 C         -72.460152     -198.842819      -65.554558
 N         -73.366600     -199.572098      -65.514153
 H         -70.901306     -195.984756      -67.534256
 H         -71.539902     -198.240021      -65.565681
 C         -71.942574     -195.862610      -67.794258
 C         -72.886444     -194.940720      -67.138786
 C         -72.549995     -196.546677      -69.034431
 C         -74.245117     -194.849823      -67.795296
 C         -73.975273     -197.127808      -68.958557
 C         -74.871544     -196.251968      -67.959396
 H         -72.377037     -194.058197      -67.364006
 H         -73.085815     -195.117645      -66.051498
 H         -72.509766     -195.732727      -69.793205
 H         -71.868851     -197.312195      -69.493034
 H         -74.198502     -194.301804      -68.791924
 H         -74.892685     -194.324905      -67.100914
 H         -73.954712     -198.122025      -68.573784
 H         -74.318771     -197.131775      -70.021172
 H         -75.854584     -196.227448      -68.369202
 H         -74.865761     -196.921204      -66.976341
