20
 generated by VMD
 C         -30.970469      -93.673248      -26.106188
 N         -31.335875      -93.758453      -25.010563
 H         -33.714420      -94.044411      -27.676081
 H         -30.478210      -93.641907      -27.038948
 C         -34.093506      -93.133102      -28.191385
 C         -35.540947      -92.738678      -27.940228
 C         -33.378269      -92.423508      -29.276152
 C         -36.088802      -91.437485      -28.535517
 C         -33.866970      -91.026398      -29.565931
 C         -35.374733      -91.082230      -29.799246
 H         -35.798927      -93.024826      -26.918489
 H         -36.177650      -93.423248      -28.590635
 H         -32.301979      -92.339523      -29.122412
 H         -33.518116      -93.080574      -30.091209
 H         -36.047924      -90.740387      -27.726614
 H         -37.153767      -91.597557      -28.723768
 H         -33.423302      -90.502876      -30.378843
 H         -33.591709      -90.408257      -28.664623
 H         -35.610382      -90.013916      -30.124868
 H         -35.667801      -91.817261      -30.690847
