20
 generated by VMD
 C         -40.370022      -99.780632      -29.138540
 N         -39.646519     -100.112846      -28.307024
 H         -37.398495      -99.326775      -30.625507
 H         -40.976833      -99.270851      -29.863424
 C         -36.416119      -99.021461      -30.752752
 C         -35.941303      -98.964264      -32.184517
 C         -35.404617      -98.567543      -29.648485
 C         -34.621441      -98.046127      -32.436501
 C         -34.292782      -97.599548      -30.008656
 C         -33.622650      -98.066093      -31.251221
 H         -36.807468      -98.530502      -32.828365
 H         -35.757034      -99.971535      -32.476875
 H         -35.901989      -97.981285      -28.789375
 H         -34.915695      -99.445595      -29.273851
 H         -35.111534      -97.128738      -32.411522
 H         -34.167782      -98.339729      -33.429688
 H         -33.470383      -97.420334      -29.261559
 H         -34.788429      -96.687119      -30.045902
 H         -32.836674      -97.417488      -31.540541
 H         -33.262260      -99.116158      -31.133141
