20
 generated by VMD
 C         -66.753319     -190.784592      -66.405083
 N         -67.848320     -190.444702      -66.516953
 H         -70.570244     -190.538742      -66.546646
 H         -65.813713     -191.222641      -66.503448
 C         -71.153786     -190.274582      -65.691315
 C         -72.273949     -191.198135      -65.450653
 C         -70.554558     -189.376602      -64.685059
 C         -73.350365     -190.682480      -64.432892
 C         -71.603432     -188.745560      -63.775269
 C         -72.759346     -189.756012      -63.261875
 H         -71.926888     -192.135101      -65.173149
 H         -72.753540     -191.465561      -66.386917
 H         -69.898102     -189.911285      -64.024605
 H         -70.045883     -188.554855      -65.077332
 H         -73.780495     -191.626663      -63.990086
 H         -74.100693     -190.044022      -64.966560
 H         -72.093567     -187.961395      -64.303642
 H         -71.106697     -188.412033      -62.849827
 H         -72.340424     -190.370071      -62.419693
 H         -73.607025     -189.233856      -62.791031
