20
 generated by VMD
 C         -28.063536      -87.196022      -27.140121
 N         -27.719040      -86.934250      -26.080395
 H         -31.277094      -88.310417      -25.226269
 H         -28.271072      -87.506355      -28.097038
 C         -32.248688      -88.391556      -25.687374
 C         -33.414890      -88.639969      -24.900095
 C         -32.342419      -88.433884      -27.180151
 C         -34.514072      -87.696747      -25.253914
 C         -33.618576      -87.606567      -27.780411
 C         -34.832489      -87.734428      -26.779625
 H         -33.332180      -88.507515      -23.797527
 H         -33.545460      -89.728256      -24.796154
 H         -31.398727      -88.023750      -27.633432
 H         -32.484989      -89.411034      -27.634768
 H         -34.238487      -86.621956      -25.053652
 H         -35.475151      -88.043114      -24.728546
 H         -33.836002      -87.907768      -28.799793
 H         -33.176659      -86.607483      -27.713606
 H         -35.564686      -87.015259      -27.122412
 H         -35.235016      -88.704201      -27.135139
