20
 generated by VMD
 C         -41.556747     -119.325363      -34.555229
 N         -41.048840     -119.828514      -35.505219
 H         -43.439068     -118.526161      -36.578083
 H         -41.951134     -118.978401      -33.574589
 C         -43.728844     -117.979774      -37.462772
 C         -42.989101     -118.104416      -38.781048
 C         -45.127872     -117.480202      -37.629017
 C         -43.777344     -118.565582      -39.935631
 C         -45.926979     -117.867722      -38.874073
 C         -45.037685     -117.801651      -40.147720
 H         -42.092300     -118.785393      -38.825386
 H         -42.552658     -117.044998      -39.081127
 H         -45.790958     -117.832382      -36.805752
 H         -44.960358     -116.487717      -37.504543
 H         -44.131779     -119.560585      -39.784599
 H         -43.289242     -118.570496      -40.936798
 H         -46.800697     -117.281837      -38.993469
 H         -46.137863     -118.907341      -38.675007
 H         -45.565956     -118.350449      -40.997509
 H         -44.771351     -116.809883      -40.409821
