20
 generated by VMD
 C         -22.706701      -52.469307      -12.021716
 N         -23.759970      -52.407993      -11.493064
 H         -19.959694      -53.734962      -14.319880
 H         -21.697147      -52.414215      -12.263558
 C         -18.959948      -53.526314      -14.216005
 C         -18.356012      -52.218441      -14.555147
 C         -18.099279      -54.415649      -13.310074
 C         -16.751333      -52.156223      -14.376732
 C         -17.109371      -53.732719      -12.392885
 C         -16.175413      -52.672768      -13.093963
 H         -18.793888      -51.508614      -13.850818
 H         -18.569672      -51.992420      -15.609923
 H         -18.741604      -55.073757      -12.733608
 H         -17.567818      -55.084446      -13.969606
 H         -16.536528      -51.099888      -14.565444
 H         -16.300434      -52.722431      -15.221395
 H         -16.426676      -54.555111      -11.986113
 H         -17.572468      -53.333447      -11.540066
 H         -16.022171      -51.900967      -12.327171
 H         -15.231985      -53.151371      -13.315999
