20
 generated by VMD
 C         -40.403572     -117.045929      -34.401501
 N         -39.470070     -116.387131      -34.630234
 H         -41.356003     -115.912773      -37.830948
 H         -41.498760     -117.350494      -34.295132
 C         -42.451771     -116.077354      -37.963585
 C         -43.169781     -116.066010      -39.258705
 C         -43.323158     -116.098991      -36.771553
 C         -44.492283     -116.827446      -39.334183
 C         -44.680103     -116.792503      -36.836460
 C         -45.406757     -116.612274      -38.148262
 H         -42.637066     -116.656647      -40.021164
 H         -43.286304     -114.979980      -39.544121
 H         -42.795536     -116.649612      -36.040474
 H         -43.427689     -115.124481      -36.358200
 H         -44.216320     -117.900658      -39.522354
 H         -45.076157     -116.480286      -40.163918
 H         -45.304447     -116.592178      -35.867535
 H         -44.566872     -117.983070      -36.766640
 H         -46.202602     -117.344284      -38.069420
 H         -45.906410     -115.513123      -38.178230
