20
 generated by VMD
 C         -38.743576     -113.676956      -35.766758
 N         -37.794735     -114.361717      -35.831211
 H         -41.382114     -114.718781      -35.703156
 H         -39.572163     -112.899841      -35.684948
 C         -42.307560     -114.452057      -36.173908
 C         -42.416512     -114.582550      -37.636848
 C         -43.458920     -114.224274      -35.333946
 C         -43.647339     -115.349907      -38.104095
 C         -44.583042     -115.224960      -35.671394
 C         -44.785690     -115.108353      -37.229866
 H         -41.381691     -114.908966      -37.942142
 H         -42.459305     -113.474159      -37.933006
 H         -43.287071     -114.398994      -34.235878
 H         -43.934029     -113.226097      -35.569527
 H         -43.399250     -116.464645      -38.145226
 H         -43.741627     -115.105629      -39.130077
 H         -45.483387     -114.948692      -35.008259
 H         -44.330643     -116.326668      -35.595898
 H         -45.729790     -115.666008      -37.549564
 H         -45.154503     -114.058411      -37.357407
