20
 generated by VMD
 C         -49.260799     -141.009384      -45.586697
 N         -48.358536     -141.367981      -45.018265
 H         -51.273235     -138.572433      -46.139156
 H         -50.188580     -140.739792      -46.086941
 C         -52.046505     -139.350037      -46.337341
 C         -52.597347     -139.352051      -47.695683
 C         -52.897522     -139.897247      -45.091553
 C         -53.419067     -140.717697      -47.959820
 C         -53.394783     -141.296860      -45.509632
 C         -54.196842     -141.314285      -46.801308
 H         -51.798489     -139.443146      -48.420910
 H         -53.076427     -138.349838      -47.884628
 H         -52.281979     -139.936691      -44.185684
 H         -53.704903     -139.221603      -44.989067
 H         -52.633423     -141.350967      -48.267799
 H         -54.103886     -140.710617      -48.798439
 H         -54.065662     -141.718536      -44.688374
 H         -52.510582     -141.925323      -45.819817
 H         -54.387703     -142.431213      -46.968864
 H         -55.219154     -140.766586      -46.922108
