20
 generated by VMD
 C         -68.162529     -188.411469      -66.744965
 N         -68.738937     -188.086594      -67.713814
 H         -68.258499     -186.943954      -63.394680
 H         -67.626556     -188.905106      -65.877289
 C         -69.169472     -187.495300      -63.509510
 C         -69.367737     -188.764099      -62.832520
 C         -70.401062     -186.646164      -63.622986
 C         -70.650215     -189.496078      -63.136337
 C         -71.797935     -187.374588      -63.764885
 C         -71.885689     -188.666611      -62.791168
 H         -69.404999     -188.740601      -61.694088
 H         -68.454178     -189.438156      -63.041767
 H         -70.433495     -186.051224      -62.728401
 H         -70.230942     -186.098755      -64.533478
 H         -70.615051     -190.488266      -62.713886
 H         -70.631836     -189.701141      -64.257767
 H         -71.988419     -187.728821      -64.808914
 H         -72.580376     -186.633835      -63.585411
 H         -72.039093     -188.453842      -61.771664
 H         -72.925003     -189.106003      -63.000523
