20
 generated by VMD
 C         -38.403553     -113.014915      -36.462738
 N         -37.287090     -112.980881      -36.257004
 H         -41.437206     -115.134094      -34.967381
 H         -39.495079     -113.222626      -36.505966
 C         -42.299755     -114.783829      -35.485374
 C         -42.133347     -114.597069      -36.980953
 C         -43.507469     -114.245506      -34.800606
 C         -43.369736     -115.054680      -37.598312
 C         -44.788849     -114.404602      -35.692211
 C         -44.582924     -114.258171      -37.152500
 H         -41.156796     -115.090233      -37.196087
 H         -41.925037     -113.578545      -36.913582
 H         -43.757362     -114.791840      -33.886166
 H         -43.406368     -113.205215      -34.618942
 H         -43.518154     -116.136368      -37.470348
 H         -43.250519     -114.881004      -38.712692
 H         -45.669868     -113.725082      -35.452881
 H         -44.996243     -115.494522      -35.427315
 H         -45.456890     -114.609810      -37.523087
 H         -44.434811     -113.199921      -37.446049
