20
 generated by VMD
 C         -70.598083     -196.749115      -65.261192
 N         -69.792137     -197.449768      -65.700203
 H         -73.519478     -196.377960      -65.484627
 H         -71.171486     -195.976807      -64.780685
 C         -73.652946     -195.706238      -66.334335
 C         -73.011490     -194.330185      -66.128098
 C         -74.254143     -196.051407      -67.623375
 C         -72.448341     -193.768951      -67.444359
 C         -74.712540     -194.649643      -68.312767
 C         -73.425270     -193.813614      -68.614738
 H         -72.186775     -194.267181      -65.366035
 H         -73.822067     -193.754654      -65.757698
 H         -73.506165     -196.501038      -68.192329
 H         -75.073509     -196.708954      -67.407486
 H         -71.569847     -194.360809      -67.737518
 H         -72.088783     -192.727509      -67.265472
 H         -75.507256     -194.055206      -67.838234
 H         -75.195831     -195.022400      -69.224022
 H         -72.931648     -194.355927      -69.361427
 H         -73.775414     -192.756485      -68.945000
