20
 generated by VMD
 C         -67.951759     -178.378204      -57.975384
 N         -66.962524     -178.508942      -57.408188
 H         -65.322052     -176.684067      -59.275875
 H         -68.865433     -178.399551      -58.539814
 C         -64.938797     -175.647446      -59.474625
 C         -65.927544     -174.594681      -59.925884
 C         -63.488480     -175.513702      -59.987087
 C         -65.370476     -173.229263      -59.811283
 C         -63.039635     -173.952515      -59.898117
 C         -64.065666     -173.034546      -60.557430
 H         -66.817497     -174.711502      -59.420719
 H         -66.228233     -174.717178      -61.016354
 H         -62.803059     -176.162674      -59.443985
 H         -63.498665     -175.729034      -61.101467
 H         -65.235100     -173.098038      -58.779087
 H         -66.105972     -172.582764      -60.169636
 H         -62.035076     -173.668243      -60.342609
 H         -62.924870     -173.979401      -58.847221
 H         -63.869068     -171.997345      -60.733894
 H         -64.252586     -173.448090      -61.609798
