20
 generated by VMD
 C         -40.454285     -106.901138      -37.610348
 N         -39.342468     -106.648315      -37.863674
 H         -38.608315     -108.136711      -34.336372
 H         -41.426891     -107.296181      -37.448795
 C         -39.284481     -108.889069      -33.933460
 C         -38.754459     -110.064766      -33.277088
 C         -40.758183     -108.802742      -34.323902
 C         -39.644363     -110.632561      -32.233871
 C         -41.712421     -109.446999      -33.286701
 C         -41.158348     -110.801964      -32.643841
 H         -37.672005     -109.906891      -32.944347
 H         -38.675877     -110.896751      -34.012787
 H         -41.041409     -107.737511      -34.538235
 H         -40.927868     -109.317978      -35.254482
 H         -39.501610     -109.961365      -31.298985
 H         -39.238815     -111.610863      -31.947594
 H         -42.555241     -109.673317      -33.846447
 H         -42.082794     -108.866058      -32.500099
 H         -41.675262     -111.111969      -31.790100
 H         -41.280212     -111.632652      -33.380852
