20
 generated by VMD
 C         -38.406326     -113.792328      -35.502148
 N         -38.197010     -114.953499      -35.503620
 H         -41.501720     -115.280144      -36.068340
 H         -38.395908     -112.741707      -35.606152
 C         -42.369129     -114.745285      -36.528294
 C         -42.702042     -114.644432      -38.023830
 C         -43.495041     -114.548782      -35.471207
 C         -43.768105     -115.633217      -38.266296
 C         -44.680454     -115.424973      -35.885780
 C         -44.949448     -115.355171      -37.362488
 H         -41.837009     -115.002457      -38.573032
 H         -42.858307     -113.643250      -38.436195
 H         -43.107178     -114.827812      -34.506447
 H         -43.813396     -113.511566      -35.451317
 H         -43.501995     -116.594284      -37.962605
 H         -44.134678     -115.668404      -39.304352
 H         -45.538967     -115.110741      -35.255932
 H         -44.451717     -116.461449      -35.602158
 H         -45.787235     -115.887825      -37.660297
 H         -45.327805     -114.405014      -37.675549
