20
 generated by VMD
 C         -12.777318      -27.516579       -1.807230
 N         -11.717489      -27.204874       -1.888233
 H         -10.339961      -26.130302       -4.591274
 H          -8.884076      -25.908857       -5.502706
 C          -9.279178      -26.223473       -4.519419
 C          -9.008146      -27.739948       -4.387705
 C          -8.698918      -25.472851       -3.348562
 C          -7.547684      -28.028389       -4.226262
 C          -7.200599      -25.762514       -3.278834
 C          -7.045994      -27.286201       -3.035330
 H          -9.424684      -28.219709       -5.325080
 H          -9.568800      -28.318718       -3.668457
 H          -8.866051      -24.393061       -3.455791
 H          -9.222389      -25.685474       -2.397735
 H          -6.965316      -27.787125       -5.145374
 H          -7.419816      -29.160130       -4.142554
 H          -6.750520      -25.174086       -2.470532
 H          -6.754811      -25.387533       -4.239226
 H          -5.981282      -27.550039       -2.953468
 H          -7.551997      -27.585340       -2.139720
