20
 generated by VMD
 C         -79.138069     -206.738708      -75.386742
 N         -79.189034     -207.121506      -76.462212
 H         -78.948242     -209.735413      -72.795174
 H         -79.147537     -206.291107      -74.460068
 C         -78.120346     -209.946899      -72.161629
 C         -76.788628     -209.188187      -72.108467
 C         -78.345230     -211.081070      -71.160728
 C         -76.953568     -208.460602      -70.769402
 C         -78.188446     -210.407028      -69.843925
 C         -77.054848     -209.499908      -69.605347
 H         -76.688416     -208.476654      -72.943977
 H         -75.890991     -209.866425      -72.076904
 H         -79.347313     -211.551590      -71.386215
 H         -77.656311     -211.925522      -71.220375
 H         -77.698380     -207.655243      -70.949677
 H         -75.940445     -208.005234      -70.614952
 H         -78.042152     -211.171844      -69.022682
 H         -79.176910     -209.957184      -69.581627
 H         -77.141518     -208.797455      -68.797310
 H         -76.176170     -210.104996      -69.465050
