20
 generated by VMD
 C          -5.804739      -21.793322        1.851902
 N          -6.554821      -22.594885        2.019380
 H          -5.172877      -19.187035       -0.708061
 H          -6.466118      -19.998798       -0.015180
 C          -6.083514      -19.810230       -0.994417
 C          -5.661088      -20.914949       -1.868658
 C          -7.131799      -19.011240       -1.715496
 C          -6.791792      -21.876839       -2.302210
 C          -8.325690      -19.843382       -2.142869
 C          -7.957049      -21.092875       -2.910654
 H          -4.992887      -21.601471       -1.302776
 H          -5.109032      -20.487478       -2.738458
 H          -7.586499      -18.260578       -0.935204
 H          -6.781024      -18.478905       -2.666819
 H          -7.135613      -22.460451       -1.411091
 H          -6.434593      -22.615013       -3.044431
 H          -8.960565      -19.192270       -2.728441
 H          -8.913114      -20.130527       -1.258786
 H          -8.863971      -21.754366       -2.964041
 H          -7.650778      -20.786598       -3.945250
