20
 generated by VMD
 C         -51.195141     -145.370697      -44.215096
 N         -51.172745     -146.389221      -44.719086
 H         -53.954445     -145.014877      -46.943748
 H         -51.029160     -144.379333      -43.779079
 C         -53.661278     -144.079987      -47.413601
 C         -52.694450     -144.015182      -48.512791
 C         -54.718948     -143.003296      -47.251514
 C         -53.421230     -143.699646      -49.891026
 C         -55.367302     -142.921341      -48.597229
 C         -54.492996     -142.677002      -49.744770
 H         -52.162071     -144.919876      -48.543056
 H         -52.055275     -143.159241      -48.271423
 H         -55.551403     -143.375870      -46.610920
 H         -54.240601     -142.106247      -46.938530
 H         -53.836441     -144.728760      -50.106319
 H         -52.576912     -143.496796      -50.636436
 H         -56.062351     -142.078217      -48.599571
 H         -56.172138     -143.729111      -48.601227
 H         -55.046543     -142.646484      -50.682991
 H         -54.136219     -141.727585      -49.551132
