20
 generated by VMD
 C         -70.297203     -182.711349      -65.678505
 N         -70.995560     -183.659683      -65.595581
 H         -67.885612     -181.890900      -63.079365
 H         -69.618126     -181.827347      -65.714455
 C         -67.513908     -181.798706      -62.108414
 C         -67.537537     -182.936874      -61.161324
 C         -67.028160     -180.482056      -61.609192
 C         -66.634956     -183.035248      -59.937389
 C         -65.943497     -180.558502      -60.513149
 C         -66.335609     -181.588898      -59.322117
 H         -67.443527     -183.706223      -61.843864
 H         -68.492455     -183.121552      -60.782589
 H         -66.566322     -179.897415      -62.404655
 H         -67.932877     -179.820908      -61.161716
 H         -65.614349     -183.473221      -60.083382
 H         -67.170586     -183.820053      -59.125175
 H         -65.739975     -179.511154      -60.270187
 H         -64.984489     -181.005966      -60.883972
 H         -65.503922     -181.496643      -58.688835
 H         -67.266983     -181.087067      -58.902645
