20
 generated by VMD
 C         -53.166359     -147.424530      -45.535347
 N         -54.273010     -147.473679      -45.265251
 H         -54.621487     -147.571167      -48.076252
 H         -52.157803     -147.487778      -45.965302
 C         -54.324810     -146.637802      -48.570137
 C         -53.251209     -146.529816      -49.540916
 C         -55.107189     -145.470261      -48.014767
 C         -53.503906     -145.310822      -50.375317
 C         -55.100155     -144.293610      -48.988407
 C         -53.861931     -144.063629      -49.728554
 H         -53.206684     -147.418747      -50.279720
 H         -52.271431     -146.429077      -49.088791
 H         -56.197197     -145.646103      -47.991688
 H         -54.777737     -145.233078      -47.066025
 H         -54.045143     -145.558075      -51.251652
 H         -52.595932     -144.991867      -50.877304
 H         -55.538464     -143.327911      -48.476162
 H         -55.886276     -144.494583      -49.789589
 H         -53.986546     -143.126114      -50.327827
 H         -53.123520     -143.909012      -48.920998
