20
 generated by VMD
 C         -58.544350     -152.098999      -49.283848
 N         -59.640785     -152.182526      -49.569965
 H         -55.718452     -150.131958      -47.868156
 H         -57.486614     -152.166824      -49.047005
 C         -55.246784     -149.808792      -48.741398
 C         -54.487297     -150.883942      -49.477501
 C         -54.911076     -148.301636      -49.086380
 C         -54.172211     -150.479172      -50.932903
 C         -54.793961     -147.980515      -50.579704
 C         -53.772945     -148.997543      -51.168663
 H         -54.968781     -151.869675      -49.627525
 H         -53.500431     -150.871277      -48.847748
 H         -55.664013     -147.727493      -48.632263
 H         -54.096996     -148.026001      -48.477707
 H         -55.071838     -150.721405      -51.479301
 H         -53.350994     -151.031754      -51.412060
 H         -54.430264     -146.964066      -50.701061
 H         -55.785889     -147.877762      -51.039646
 H         -53.578194     -148.771393      -52.237442
 H         -52.843075     -148.863297      -50.674400
