20
 generated by VMD
 C         -57.770367     -165.449829      -56.480354
 N         -57.723133     -166.625687      -56.319599
 H         -60.621376     -164.964203      -54.178127
 H         -57.827946     -164.343552      -56.656757
 C         -61.518627     -165.229462      -54.779057
 C         -61.793701     -166.682190      -55.244171
 C         -62.236523     -164.015610      -55.510979
 C         -63.349133     -166.804657      -55.405704
 C         -63.723278     -164.357239      -55.770535
 C         -63.864880     -165.746948      -56.357964
 H         -61.422874     -167.177002      -54.264545
 H         -61.245251     -166.766617      -56.150944
 H         -62.245358     -163.148315      -54.881893
 H         -61.605545     -163.741302      -56.476952
 H         -63.736614     -166.709229      -54.293331
 H         -63.718365     -167.833252      -55.730709
 H         -64.301987     -163.742493      -56.352531
 H         -64.198013     -164.404388      -54.868881
 H         -64.951721     -165.961029      -56.507698
 H         -63.303070     -165.970764      -57.263821
