20
 generated by VMD
 C          -9.320760      -24.678207        0.945077
 N          -9.927769      -25.370222        1.583095
 H          -6.790018      -23.090197       -0.665429
 H          -8.309803      -22.693800       -1.271972
 C          -7.296659      -23.022219       -1.645840
 C          -7.452518      -24.411375       -2.375606
 C          -6.542488      -21.985249       -2.461916
 C          -8.024532      -24.143284       -3.790064
 C          -7.086082      -21.819576       -3.865279
 C          -7.186732      -23.124300       -4.582608
 H          -8.160594      -24.963728       -1.891539
 H          -6.470427      -24.879032       -2.305032
 H          -6.672571      -21.028406       -1.955069
 H          -5.448286      -22.230448       -2.536008
 H          -9.091399      -23.826305       -3.675769
 H          -7.963295      -25.079422       -4.359246
 H          -6.310940      -21.218977       -4.365338
 H          -8.038176      -21.291481       -3.938958
 H          -7.751862      -22.829563       -5.498136
 H          -6.231102      -23.583748       -4.871741
