20
 generated by VMD
 C         -68.526291     -189.298401      -67.237022
 N         -67.375122     -189.243835      -66.983536
 H         -68.606972     -188.249725      -63.721241
 H         -69.506012     -189.504257      -67.613197
 C         -69.599800     -188.389435      -63.366493
 C         -70.149872     -189.683105      -63.438995
 C         -70.468094     -187.312210      -62.912579
 C         -71.403954     -189.692337      -64.376663
 C         -71.786995     -187.329178      -63.620224
 C         -72.547394     -188.696396      -63.817894
 H         -70.372719     -189.990891      -62.470444
 H         -69.412544     -190.276947      -63.892754
 H         -70.546852     -187.253143      -61.812675
 H         -69.920036     -186.359009      -63.041584
 H         -71.823875     -190.737915      -64.345657
 H         -71.152870     -189.358521      -65.391083
 H         -71.890915     -186.822678      -64.564919
 H         -72.346626     -186.737991      -62.854393
 H         -72.743980     -189.002838      -62.859005
 H         -73.343697     -188.726624      -64.600662
