20
 generated by VMD
 C         -40.350113     -118.327301      -34.897213
 N         -39.429398     -117.672333      -35.040771
 H         -42.707485     -116.623764      -36.438232
 H         -40.992401     -119.232750      -34.678150
 C         -43.397572     -116.778847      -37.213715
 C         -42.848618     -117.053383      -38.602955
 C         -44.789268     -116.181396      -37.019470
 C         -43.826515     -117.820900      -39.477524
 C         -45.814899     -116.968102      -37.943893
 C         -45.261425     -117.153900      -39.360325
 H         -41.961479     -117.621239      -38.437168
 H         -42.575115     -116.120483      -38.997822
 H         -45.299919     -116.320976      -36.042271
 H         -44.784988     -115.020355      -37.122898
 H         -43.967079     -118.846497      -39.005348
 H         -43.601566     -117.910721      -40.625565
 H         -46.694866     -116.477463      -38.116661
 H         -45.953705     -117.835419      -37.332855
 H         -45.928448     -117.761086      -39.930744
 H         -45.205227     -116.013748      -39.705402
