20
 generated by VMD
 C         -27.864983      -81.183975      -27.540771
 N         -29.014875      -81.315102      -27.514755
 H         -29.508060      -83.359283      -25.156324
 H         -26.824167      -81.113129      -27.475422
 C         -30.281519      -83.876404      -24.630167
 C         -30.308746      -84.043930      -23.109125
 C         -31.101412      -84.849869      -25.445751
 C         -31.638964      -84.376404      -22.566624
 C         -32.362438      -85.354805      -24.845947
 C         -32.263523      -85.619904      -23.340597
 H         -30.070971      -82.991722      -22.804085
 H         -29.472586      -84.569588      -22.800375
 H         -31.411007      -84.367203      -26.370117
 H         -30.541780      -85.698135      -25.856907
 H         -32.239864      -83.409340      -22.838623
 H         -31.559023      -84.625061      -21.550962
 H         -32.734280      -86.225449      -25.290340
 H         -33.113575      -84.513809      -24.924635
 H         -33.271576      -85.677483      -22.895445
 H         -31.724361      -86.472191      -22.987183
