20
 generated by VMD
 C         -38.788532     -111.411430      -36.480392
 N         -38.360130     -110.349724      -36.521015
 H         -40.200089     -114.103165      -35.038078
 H         -39.222500     -112.450043      -36.398727
 C         -41.033661     -113.517548      -35.376286
 C         -41.712776     -113.819801      -36.698833
 C         -41.754356     -112.618820      -34.394062
 C         -43.194565     -114.158157      -36.474892
 C         -43.316311     -112.881409      -34.373566
 C         -43.866203     -112.979645      -35.822735
 H         -41.283878     -114.663025      -37.179611
 H         -41.587307     -112.863388      -37.279278
 H         -41.314568     -112.740959      -33.357342
 H         -41.692699     -111.512871      -34.556602
 H         -43.544205     -115.192513      -36.155277
 H         -43.598164     -114.228004      -37.537956
 H         -43.956615     -112.144600      -33.838768
 H         -43.429012     -113.839996      -33.800968
 H         -45.002857     -113.130295      -35.750088
 H         -43.743286     -112.029381      -36.259724
