20
 generated by VMD
 C         -38.258595      -98.615639      -27.819555
 N         -38.269276      -99.583115      -27.183010
 H         -37.469624      -97.877106      -30.458263
 H         -38.423798      -97.777184      -28.581673
 C         -36.398071      -97.494278      -30.657549
 C         -35.524666      -98.086411      -31.870001
 C         -35.658154      -96.999924      -29.544113
 C         -34.508118      -97.041412      -32.205990
 C         -34.507351      -96.085434      -29.846958
 C         -33.594948      -96.793915      -31.018744
 H         -36.248493      -98.294838      -32.720303
 H         -35.139080      -99.065308      -31.533533
 H         -36.313019      -96.578468      -28.729767
 H         -35.298019      -97.944855      -29.151279
 H         -35.024673      -96.144791      -32.566917
 H         -33.901615      -97.314316      -33.174973
 H         -33.869106      -95.950745      -28.917713
 H         -34.810768      -95.089989      -30.229630
 H         -32.836891      -96.116875      -31.217535
 H         -33.101860      -97.839172      -30.810049
