20
 generated by VMD
 C         -47.695564     -138.022156      -45.885281
 N         -47.259926     -137.812302      -46.894264
 H         -50.412273     -137.634216      -44.468323
 H         -48.106705     -138.450317      -45.000183
 C         -51.255421     -138.188736      -44.832775
 C         -51.439571     -138.612335      -46.168324
 C         -52.550983     -137.736557      -44.161640
 C         -52.465691     -139.747665      -46.264690
 C         -53.589108     -138.802780      -44.186806
 C         -53.784920     -139.291168      -45.678631
 H         -50.459515     -138.900406      -46.524906
 H         -51.754612     -137.818237      -46.786171
 H         -52.417923     -137.391617      -43.086243
 H         -52.956749     -136.937729      -44.803833
 H         -52.183750     -140.766159      -45.838028
 H         -52.597336     -139.735352      -47.355614
 H         -54.528706     -138.337875      -43.749474
 H         -53.146095     -139.609116      -43.656921
 H         -54.575462     -140.213715      -45.557297
 H         -54.266609     -138.440567      -46.280479
