20
 generated by VMD
 C         -68.856415     -185.893478      -66.193428
 N         -68.511314     -186.156952      -67.279381
 H         -69.665993     -183.041077      -63.509407
 H         -69.221977     -185.665222      -65.170074
 C         -69.357147     -183.729065      -62.768929
 C         -70.326614     -184.868317      -62.686943
 C         -68.013542     -183.902573      -62.119827
 C         -70.186951     -185.784088      -61.501228
 C         -67.615211     -185.206116      -61.363575
 C         -68.752480     -186.334351      -61.521790
 H         -70.457390     -185.396820      -63.644409
 H         -71.308884     -184.411316      -62.542248
 H         -67.323227     -183.710098      -62.960609
 H         -67.662788     -183.039581      -61.485367
 H         -70.902046     -186.599640      -61.547428
 H         -70.310501     -185.188431      -60.567013
 H         -67.505112     -184.936218      -60.350681
 H         -66.678307     -185.659119      -61.651218
 H         -68.616791     -186.976685      -62.576717
 H         -68.731071     -187.063782      -60.630756
