20
 generated by VMD
 C         -67.472748     -189.602386      -66.790123
 N         -66.392639     -189.940918      -66.505714
 H         -70.058922     -190.864029      -65.646805
 H         -68.497925     -189.338379      -66.816231
 C         -70.842392     -190.284409      -65.201897
 C         -72.151260     -191.025681      -64.742172
 C         -70.425179     -189.090302      -64.376480
 C         -73.191635     -190.022629      -63.991199
 C         -71.588593     -188.116104      -63.944641
 C         -72.555969     -188.988953      -63.133095
 H         -71.826759     -191.718079      -64.040321
 H         -72.697456     -191.634216      -65.438004
 H         -69.845787     -189.396133      -63.460796
 H         -69.631371     -188.429092      -64.883614
 H         -73.758873     -190.619659      -63.246838
 H         -73.861168     -189.586700      -64.673302
 H         -72.128807     -187.643402      -64.765305
 H         -71.191330     -187.233704      -63.321774
 H         -71.947617     -189.424820      -62.335972
 H         -73.504082     -188.468079      -62.773785
