20
 generated by VMD
 C         -68.351196     -193.595383      -64.930412
 N         -68.387352     -194.669540      -65.423874
 H         -70.697739     -193.210175      -67.028564
 H         -68.647835     -192.553284      -64.568329
 C         -71.633842     -192.681030      -66.907524
 C         -71.801376     -191.299866      -66.359299
 C         -72.925499     -193.460587      -67.053009
 C         -73.236847     -190.892288      -66.099991
 C         -73.608528     -193.328232      -65.725372
 C         -73.970032     -191.892120      -65.305504
 H         -71.379875     -190.698410      -67.131760
 H         -71.227173     -191.195007      -65.410484
 H         -73.605949     -193.056244      -67.801537
 H         -72.761375     -194.454147      -67.263786
 H         -73.734604     -190.553986      -67.031998
 H         -73.250526     -189.905029      -65.608093
 H         -72.912857     -193.832993      -65.046730
 H         -74.520752     -193.996719      -65.616920
 H         -75.122192     -191.631317      -65.337776
 H         -73.736763     -191.886642      -64.261909
