20
 generated by VMD
 C         -12.946614      -31.180511       -8.217619
 N         -12.502033      -30.177855       -8.244701
 H         -11.723346      -33.037510       -7.122670
 H         -12.256916      -32.728260       -5.506515
 C         -11.608434      -33.372574       -6.123371
 C         -10.183014      -33.270241       -5.608896
 C         -12.219275      -34.763042       -5.975891
 C         -10.177835      -33.764206       -4.141392
 C         -12.167018      -35.222260       -4.516353
 C         -10.797191      -35.091503       -3.923747
 H          -9.844506      -32.237686       -5.607032
 H          -9.505778      -33.867046       -6.219679
 H         -13.269219      -34.790886       -6.306772
 H         -11.639420      -35.497189       -6.588089
 H         -10.743189      -32.969872       -3.597256
 H          -9.107046      -33.803856       -3.886056
 H         -12.501897      -36.236488       -4.494019
 H         -12.865728      -34.549877       -3.874112
 H         -10.813220      -35.236843       -2.836189
 H         -10.179420      -35.936497       -4.305759
