20
 generated by VMD
 C         -78.683380     -208.732071      -77.032745
 N         -79.391426     -208.462143      -76.157104
 H         -78.470749     -209.397888      -73.424393
 H         -78.021111     -208.973816      -77.939751
 C         -78.346596     -209.925568      -72.493347
 C         -76.980965     -209.715973      -71.747177
 C         -79.302994     -211.079010      -72.148926
 C         -77.181252     -210.008087      -70.243195
 C         -79.240723     -211.496780      -70.668930
 C         -77.818047     -211.340851      -70.116814
 H         -76.487251     -208.748840      -71.969917
 H         -76.238617     -210.443176      -72.192589
 H         -80.400497     -210.973267      -72.496567
 H         -78.834702     -211.889069      -72.738403
 H         -77.785851     -209.242310      -69.783020
 H         -76.272003     -209.977524      -69.605713
 H         -79.708626     -212.537292      -70.659294
 H         -79.817703     -210.855576      -69.999382
 H         -78.049347     -211.649155      -69.059364
 H         -77.109642     -212.121262      -70.437363
