20
 generated by VMD
 C         -65.724548     -177.670959      -56.802837
 N         -66.150864     -176.586075      -56.841892
 H         -65.080429     -175.653992      -59.508640
 H         -65.310974     -178.639618      -56.878521
 C         -64.687088     -174.570984      -59.424309
 C         -65.325310     -173.526672      -58.639610
 C         -63.482841     -174.259735      -60.257446
 C         -65.216133     -172.084167      -58.978588
 C         -63.099255     -172.720139      -60.318359
 C         -64.414856     -171.820999      -60.205452
 H         -65.169579     -173.836304      -57.616211
 H         -66.399223     -173.700394      -58.756924
 H         -62.649487     -174.965790      -60.060539
 H         -63.727043     -174.375458      -61.391842
 H         -64.786255     -171.510986      -58.131626
 H         -66.277657     -171.727966      -59.002213
 H         -62.480473     -172.413055      -61.132240
 H         -62.443333     -172.504364      -59.411415
 H         -64.008545     -170.786545      -60.129200
 H         -64.868507     -171.801270      -61.176376
