20
 generated by VMD
 C         -50.806717     -128.298157      -41.875954
 N         -51.925339     -128.481689      -41.850212
 H         -47.851414     -127.871445      -40.386787
 H         -49.787468     -128.044449      -41.716526
 C         -46.892521     -127.547112      -40.847710
 C         -45.607552     -127.920975      -40.121750
 C         -46.850437     -126.056007      -41.221203
 C         -44.278580     -127.543953      -40.803696
 C         -45.609364     -125.551872      -41.940792
 C         -44.337524     -125.988945      -41.129555
 H         -45.613129     -128.970001      -39.945534
 H         -45.539089     -127.497292      -39.080540
 H         -47.635696     -125.667511      -41.777470
 H         -47.068249     -125.501808      -40.198074
 H         -44.197422     -128.083054      -41.770485
 H         -43.369274     -127.851692      -40.307587
 H         -45.641708     -124.405678      -41.883793
 H         -45.474312     -125.890617      -42.997009
 H         -43.361565     -125.803589      -41.626492
 H         -44.400433     -125.590530      -40.133999
