20
 generated by VMD
 C         -40.047894     -100.902069      -31.866463
 N         -40.965179     -100.553291      -31.239424
 H         -37.728065     -103.634750      -32.029705
 H         -39.048553     -101.394272      -32.145096
 C         -37.150143     -102.743393      -31.963169
 C         -35.980103     -102.351830      -32.673061
 C         -37.152626     -102.414352      -30.462727
 C         -35.403889     -100.989052      -32.519375
 C         -36.545994     -100.983597      -30.349752
 C         -35.311581     -100.661301      -31.031069
 H         -36.159817     -102.567162      -33.760059
 H         -35.192596     -103.076744      -32.460484
 H         -38.163345     -102.504349      -30.109686
 H         -36.455269     -103.156105      -29.873301
 H         -35.940392     -100.351318      -33.170361
 H         -34.362377     -101.043343      -32.916847
 H         -36.399551     -100.815796      -29.226234
 H         -37.260529     -100.270462      -30.597086
 H         -34.977100      -99.665291      -30.849396
 H         -34.590031     -101.295662      -30.515528
