20
 generated by VMD
 C         -13.098101      -43.348881       -6.778887
 N         -12.859984      -42.296570       -7.013380
 H         -14.504833      -43.954315       -8.385545
 H         -14.546476      -42.668621       -9.444140
 C         -15.052023      -43.562126       -9.270845
 C         -16.536360      -43.238640       -9.055242
 C         -14.934263      -44.520607      -10.463717
 C         -17.119780      -42.573753      -10.257591
 C         -15.586651      -43.884857      -11.715885
 C         -17.042212      -43.431400      -11.513399
 H         -16.674557      -42.567139       -8.153683
 H         -17.107901      -44.158756       -8.850930
 H         -13.861673      -44.711418      -10.641493
 H         -15.254780      -45.517010      -10.147797
 H         -16.509287      -41.675270      -10.484609
 H         -18.141911      -42.167393      -10.055037
 H         -15.607312      -44.549522      -12.664761
 H         -15.016688      -43.003216      -11.942431
 H         -17.275444      -42.819614      -12.392841
 H         -17.712633      -44.244438      -11.427010
