20
 generated by VMD
 C         -39.002335     -112.369789      -35.823700
 N         -38.468765     -111.771423      -36.660309
 H         -40.818779     -114.866386      -34.911568
 H         -39.562263     -112.927612      -35.122242
 C         -41.511177     -114.204018      -35.470879
 C         -41.684280     -114.359856      -36.979740
 C         -42.311069     -113.170021      -34.727356
 C         -43.274715     -114.526894      -37.132446
 C         -43.750580     -113.544289      -34.934269
 C         -44.168816     -113.460777      -36.487713
 H         -41.203312     -115.234848      -37.582893
 H         -41.453861     -113.393288      -37.547157
 H         -42.089706     -113.297829      -33.669426
 H         -42.184677     -112.113731      -34.857761
 H         -43.470173     -115.596611      -36.915180
 H         -43.417553     -114.500809      -38.226810
 H         -44.361023     -112.719955      -34.393257
 H         -44.013481     -114.627983      -34.669331
 H         -45.192200     -113.728798      -36.454891
 H         -44.093197     -112.384399      -36.841156
