20
 generated by VMD
 C         -11.986710      -25.610966       -0.266357
 N         -13.004000      -26.087831       -0.207897
 H          -9.474441      -26.825565       -2.774304
 H          -9.396127      -25.680895       -4.110329
 C          -8.804324      -26.237488       -3.369736
 C          -7.710744      -27.129944       -3.896147
 C          -8.154099      -25.078428       -2.564373
 C          -6.809520      -26.377344       -4.891858
 C          -7.186333      -24.277487       -3.519605
 C          -6.145197      -25.251591       -4.184971
 H          -8.104443      -27.981564       -4.395741
 H          -7.135789      -27.662798       -3.073155
 H          -8.943085      -24.354998       -2.240343
 H          -7.664953      -25.386656       -1.666691
 H          -7.354012      -26.163506       -5.839406
 H          -6.013533      -27.049355       -5.239212
 H          -6.653514      -23.474201       -3.021631
 H          -7.758476      -23.814592       -4.315121
 H          -5.692380      -24.609119       -4.951627
 H          -5.344521      -25.485811       -3.511705
