20
 generated by VMD
 C         -10.470801      -33.063866       -8.947162
 N         -11.070971      -33.880054       -9.349795
 H         -13.138657      -33.890190       -6.219676
 H         -13.096635      -34.826046       -4.725331
 C         -13.067274      -34.962105       -5.806078
 C         -11.685070      -35.619228       -6.016764
 C         -14.294657      -35.725639       -6.128848
 C         -11.679347      -37.096519       -5.516723
 C         -14.114639      -37.231667       -5.828448
 C         -12.781661      -37.856007       -6.159828
 H         -10.906077      -34.979424       -5.621889
 H         -11.541302      -35.660038       -7.094767
 H         -15.186946      -35.410778       -5.614992
 H         -14.416132      -35.643223       -7.234282
 H         -11.734953      -37.152966       -4.468833
 H         -10.702271      -37.524994       -5.753796
 H         -14.900114      -37.729958       -6.427039
 H         -14.353686      -37.420601       -4.794545
 H         -12.867960      -38.895634       -5.783891
 H         -12.619085      -37.843361       -7.283525
