20
 generated by VMD
 C         -12.127872      -31.544926       -8.854386
 N         -12.855639      -31.898272       -9.637210
 H         -10.413123      -34.400871       -6.792346
 H         -11.334847      -33.857330       -5.421564
 C         -11.120807      -34.764599       -6.051967
 C         -10.504945      -35.791367       -5.165535
 C         -12.408693      -35.244225       -6.752429
 C         -11.543013      -36.258606       -4.197053
 C         -13.396702      -35.787407       -5.668018
 C         -12.782634      -36.852745       -4.786009
 H          -9.593743      -35.420879       -4.624239
 H         -10.109838      -36.684757       -5.638438
 H         -12.847831      -34.438095       -7.341850
 H         -12.351587      -36.062431       -7.474223
 H         -11.716662      -35.544476       -3.400769
 H         -11.066983      -37.050648       -3.590273
 H         -14.308948      -36.107010       -6.144005
 H         -13.802354      -34.956100       -5.036997
 H         -13.505279      -37.095104       -3.932478
 H         -12.554624      -37.754341       -5.350384
