20
 generated by VMD
 C         -60.198265     -157.317154      -56.135376
 N         -59.668026     -158.164536      -56.747467
 H         -60.283203     -157.428848      -52.685818
 H         -60.723064     -156.560364      -55.528072
 C         -59.451733     -158.117126      -52.827198
 C         -58.025620     -157.827026      -52.237232
 C         -59.585121     -159.618301      -53.235195
 C         -57.650913     -158.713455      -51.059540
 C         -59.333282     -160.443573      -51.950024
 C         -57.922783     -160.228165      -51.398827
 H         -57.759109     -156.725464      -52.114208
 H         -57.294556     -158.072327      -53.112072
 H         -60.536217     -159.903214      -53.767021
 H         -58.859768     -159.665436      -54.008896
 H         -58.238045     -158.309052      -50.142002
 H         -56.497326     -158.529114      -50.942806
 H         -59.455849     -161.551300      -52.104214
 H         -60.085617     -160.059341      -51.126942
 H         -57.815292     -160.769287      -50.351784
 H         -57.123592     -160.641800      -52.084339
