20
 generated by VMD
 C         -50.721325     -129.565475      -45.538742
 N         -51.337963     -130.553558      -45.629436
 H         -48.241055     -130.819870      -43.959553
 H         -50.001637     -128.732315      -45.654167
 C         -48.175915     -130.828323      -42.913177
 C         -48.334595     -132.119827      -42.198341
 C         -47.920967     -129.735153      -42.044697
 C         -47.134125     -132.383102      -41.255676
 C         -46.699265     -129.966248      -41.087414
 C         -46.895702     -131.240295      -40.291386
 H         -48.397617     -132.905045      -42.912125
 H         -49.204590     -132.282944      -41.492916
 H         -47.609318     -128.877594      -42.730816
 H         -48.810276     -129.428101      -41.477173
 H         -46.257526     -132.550507      -41.862408
 H         -47.316319     -133.231125      -40.593273
 H         -46.667320     -129.055771      -40.478401
 H         -45.708458     -130.113678      -41.673576
 H         -45.997330     -131.393097      -39.586670
 H         -47.672798     -131.012436      -39.513416
