20
 generated by VMD
 C         -68.253197     -188.128418      -66.601624
 N         -68.778992     -189.017227      -67.129440
 H         -68.252892     -187.211502      -63.506115
 H         -67.653542     -187.407791      -66.020920
 C         -69.267258     -187.624802      -63.614513
 C         -69.432892     -189.037582      -63.309628
 C         -70.407219     -186.773117      -63.262028
 C         -70.807243     -189.635880      -63.594967
 C         -71.759674     -187.316132      -63.819523
 C         -72.011421     -188.782806      -63.240868
 H         -69.179596     -189.310745      -62.206795
 H         -68.567200     -189.487396      -63.991966
 H         -70.424118     -186.552811      -62.188652
 H         -70.230957     -185.745941      -63.621025
 H         -70.877472     -190.614258      -63.111900
 H         -70.808762     -189.727737      -64.716400
 H         -71.641647     -187.443649      -64.916855
 H         -72.616936     -186.637863      -63.636433
 H         -72.016724     -188.635178      -62.165260
 H         -73.048653     -188.997986      -63.733543
