20
 generated by VMD
 C         -69.997810     -184.145737      -65.981544
 N         -69.022614     -183.962402      -66.530624
 H         -69.596062     -183.760727      -63.387234
 H         -70.922844     -184.427338      -65.414131
 C         -68.866066     -183.925354      -62.563412
 C         -69.184525     -184.704071      -61.367401
 C         -67.986183     -182.609848      -62.497406
 C         -67.894905     -184.774948      -60.528149
 C         -66.889198     -182.590240      -61.385185
 C         -67.314247     -183.352921      -60.151768
 H         -69.484200     -185.744049      -61.689281
 H         -69.907349     -184.316269      -60.681152
 H         -67.635429     -182.414505      -63.504616
 H         -68.647232     -181.700760      -62.268230
 H         -66.962318     -185.272141      -60.874691
 H         -68.073265     -185.219055      -59.530418
 H         -66.775909     -181.520767      -61.158703
 H         -65.986374     -183.037750      -61.701683
 H         -66.617928     -183.442230      -59.359150
 H         -68.300560     -182.797806      -59.731228
