20
 generated by VMD
 C         -67.245941     -189.716446      -67.039772
 N         -66.868622     -190.108765      -66.021889
 H         -70.509300     -190.735458      -66.099480
 H         -67.377762     -189.355637      -68.037704
 C         -71.131020     -190.316010      -65.357430
 C         -72.146545     -191.136459      -64.684433
 C         -70.540123     -189.229034      -64.712967
 C         -73.156036     -190.094925      -64.250916
 C         -71.396645     -188.352936      -63.760399
 C         -72.611099     -189.190216      -63.164433
 H         -71.666359     -191.612732      -63.723412
 H         -72.542267     -191.820007      -65.430977
 H         -69.758179     -189.655640      -64.047096
 H         -70.108978     -188.655151      -65.441345
 H         -74.043472     -190.620316      -63.818604
 H         -73.422188     -189.445969      -65.119347
 H         -71.753944     -187.512390      -64.317726
 H         -70.837311     -187.882233      -62.959816
 H         -72.491150     -189.846085      -62.256550
 H         -73.269394     -188.482239      -62.886589
