20
 generated by VMD
 C         -60.148563     -156.246384      -55.137299
 N         -60.444176     -155.141495      -55.443741
 H         -59.974640     -157.555038      -51.873814
 H         -59.853924     -157.302948      -55.047058
 C         -58.887486     -157.502686      -52.114403
 C         -58.201031     -156.200638      -52.193909
 C         -58.024868     -158.686356      -51.939697
 C         -57.189590     -155.892883      -51.163418
 C         -57.008469     -158.358688      -50.761856
 C         -56.262222     -157.125778      -50.999962
 H         -58.964943     -155.412704      -52.111862
 H         -57.942135     -156.066681      -53.199272
 H         -58.496208     -159.669373      -51.619759
 H         -57.446449     -158.951172      -52.844456
 H         -57.415020     -155.443573      -50.198597
 H         -56.640369     -155.111084      -51.644562
 H         -56.361431     -159.222061      -50.544579
 H         -57.455879     -158.203369      -49.816284
 H         -55.387695     -156.954590      -50.277782
 H         -55.691280     -157.178757      -51.930599
