20
 generated by VMD
 C         -11.140388      -37.458885       -7.148020
 N         -11.509745      -37.684036       -8.176059
 H         -12.467859      -40.323273       -8.316381
 H         -13.517002      -39.918030       -7.075244
 C         -13.516867      -40.346764       -8.049466
 C         -13.988780      -41.815094       -7.924032
 C         -14.205194      -39.498310       -9.132512
 C         -15.526989      -41.901897       -7.786454
 C         -15.755591      -39.645004       -9.032885
 C         -16.269527      -41.155293       -8.885858
 H         -13.374335      -42.406353       -7.204109
 H         -13.776445      -42.336548       -8.856562
 H         -13.968626      -38.393200       -9.041665
 H         -13.849195      -39.755371      -10.135958
 H         -15.812151      -41.445866       -6.832789
 H         -15.904008      -42.942638       -7.684213
 H         -16.317406      -39.173096       -9.828238
 H         -16.033281      -39.160046       -8.057394
 H         -17.364260      -41.088997       -8.658313
 H         -16.157665      -41.725559       -9.818255
