20
 generated by VMD
 C         -72.522652     -198.983261      -65.594704
 N         -72.828758     -199.890900      -64.955467
 H         -71.038994     -195.903534      -67.480881
 H         -72.485146     -198.216583      -66.387032
 C         -72.007095     -195.699036      -67.877327
 C         -72.831306     -194.613922      -67.222343
 C         -72.563644     -196.435272      -69.043434
 C         -74.286880     -194.604279      -67.780579
 C         -73.993523     -196.887283      -68.851753
 C         -74.824951     -195.955536      -68.106377
 H         -72.276733     -193.746262      -67.094398
 H         -73.045845     -194.828491      -66.181206
 H         -72.415504     -195.867859      -69.977135
 H         -72.005615     -197.402573      -69.167725
 H         -74.237549     -193.939621      -68.678169
 H         -74.908928     -194.027786      -67.127518
 H         -74.059212     -197.876999      -68.435692
 H         -74.498055     -197.055222      -69.833214
 H         -75.876854     -195.926620      -68.413170
 H         -75.009987     -196.366714      -66.947876
