20
 generated by VMD
 C         -30.813696      -78.186279      -25.990444
 N         -31.840504      -77.579971      -25.903112
 H         -29.234474      -77.844681      -22.712049
 H         -29.834049      -78.625992      -26.155731
 C         -28.834204      -78.833916      -22.875238
 C         -27.403528      -79.012230      -23.238550
 C         -29.720947      -80.033432      -22.459917
 C         -26.730331      -79.787010      -22.157515
 C         -28.931524      -80.778809      -21.321686
 C         -27.542524      -81.009895      -21.670412
 H         -26.861788      -78.056183      -23.340603
 H         -27.325132      -79.427139      -24.216318
 H         -30.791355      -79.710983      -22.199747
 H         -29.868980      -80.584000      -23.328531
 H         -26.461647      -79.225235      -21.244673
 H         -25.802198      -80.038261      -22.659674
 H         -29.415554      -81.711258      -21.299360
 H         -29.003193      -80.124207      -20.421761
 H         -26.999620      -81.440735      -20.789614
 H         -27.600018      -81.840019      -22.521549
