20
 generated by VMD
 C         -67.983978     -178.531860      -58.049992
 N         -66.907379     -178.410797      -57.596828
 H         -65.315376     -176.339432      -58.660686
 H         -68.925377     -178.756195      -58.485027
 C         -65.047905     -175.651550      -59.473415
 C         -66.019760     -174.661804      -60.049160
 C         -63.561848     -175.700027      -59.904961
 C         -65.416870     -173.288315      -59.934940
 C         -62.995060     -174.195145      -59.917439
 C         -64.077232     -173.118973      -60.448627
 H         -67.049179     -174.611954      -59.475937
 H         -66.282730     -174.974350      -61.033363
 H         -62.858681     -176.292206      -59.194157
 H         -63.527279     -176.033768      -60.961407
 H         -65.588676     -172.894714      -58.881721
 H         -66.135643     -172.556656      -60.479683
 H         -61.993313     -174.219376      -60.293430
 H         -62.871147     -173.731018      -58.914070
 H         -63.589142     -172.125259      -60.335430
 H         -64.118507     -173.362015      -61.516571
