20
 generated by VMD
 C         -28.443562      -84.621620      -26.432035
 N         -27.996830      -83.716118      -26.989353
 H         -31.348253      -84.473251      -26.205311
 H         -29.064631      -85.401718      -25.822126
 C         -31.360111      -85.529221      -25.787689
 C         -31.542265      -85.612946      -24.363045
 C         -31.890793      -86.526924      -26.640125
 C         -32.891754      -86.035896      -23.902014
 C         -33.267338      -87.064919      -26.184418
 C         -33.323536      -87.409897      -24.656332
 H         -31.162470      -84.702591      -23.885605
 H         -30.734240      -86.269783      -24.027218
 H         -31.926689      -86.155960      -27.634073
 H         -31.287169      -87.433502      -26.626375
 H         -33.718403      -85.268608      -23.968998
 H         -32.778385      -86.283661      -22.866913
 H         -33.414200      -88.001961      -26.747116
 H         -34.060703      -86.274719      -26.624474
 H         -34.443546      -87.698090      -24.381929
 H         -32.668022      -88.271881      -24.274576
