20
 generated by VMD
 C         -38.592304      -99.089333      -27.120911
 N         -37.686481      -98.974213      -26.405085
 H         -37.018639      -97.117882      -29.875040
 H         -39.392036      -99.045532      -27.766468
 C         -36.021645      -96.932495      -30.291956
 C         -35.492092      -97.472847      -31.523457
 C         -35.258919      -95.948967      -29.462627
 C         -34.511894      -96.589935      -32.259403
 C         -34.041733      -95.338280      -30.034594
 C         -33.429440      -95.930984      -31.322447
 H         -36.224686      -97.683586      -32.269501
 H         -34.880337      -98.390640      -31.186363
 H         -36.070099      -95.277679      -29.261742
 H         -34.973351      -96.292145      -28.437790
 H         -34.892269      -95.817085      -32.856110
 H         -33.924522      -97.132675      -33.029469
 H         -33.249073      -95.372528      -29.229145
 H         -34.375713      -94.296432      -30.142952
 H         -32.649509      -95.262344      -31.871157
 H         -32.802845      -96.812355      -31.075184
