20
 generated by VMD
 C         -50.012543     -143.916916      -44.370476
 N         -49.270664     -143.655045      -45.273781
 H         -52.068516     -141.493454      -45.716690
 H         -50.601791     -143.960632      -43.433910
 C         -52.797649     -141.803650      -46.492764
 C         -52.236931     -141.780365      -47.829140
 C         -54.269905     -141.356049      -46.307976
 C         -53.175842     -142.345169      -48.858456
 C         -55.165474     -141.923981      -47.396290
 C         -54.613018     -141.726059      -48.753918
 H         -51.324207     -142.447250      -47.794262
 H         -51.807663     -140.851761      -48.157841
 H         -54.569641     -141.659851      -45.262993
 H         -54.329441     -140.238739      -46.148220
 H         -53.461269     -143.524506      -48.861813
 H         -52.674156     -142.159378      -49.866917
 H         -56.154396     -141.342957      -47.298149
 H         -55.426365     -142.982498      -47.103767
 H         -55.200550     -142.203888      -49.616722
 H         -54.418972     -140.583496      -48.988472
