20
 generated by VMD
 C         -56.327980     -149.777679      -46.392418
 N         -56.700310     -150.572861      -45.672554
 H         -53.149128     -147.742584      -47.683525
 H         -56.137806     -148.970642      -47.041786
 C         -53.663097     -147.421097      -48.609390
 C         -52.894127     -147.707764      -49.839542
 C         -54.687634     -146.314529      -48.548901
 C         -53.823624     -147.534805      -51.175415
 C         -55.355637     -145.723083      -49.853153
 C         -54.436649     -146.055038      -51.162491
 H         -52.730038     -148.869141      -49.767033
 H         -52.039761     -147.125061      -49.938507
 H         -55.602047     -146.499512      -47.844078
 H         -54.049438     -145.495422      -48.144192
 H         -54.565880     -148.319534      -51.022930
 H         -53.180943     -147.859192      -51.977009
 H         -55.583412     -144.713501      -49.804863
 H         -56.349358     -146.260498      -50.042572
 H         -55.148991     -146.001541      -52.018238
 H         -53.654842     -145.336990      -51.323368
