20
 generated by VMD
 C         -78.655403     -209.789307      -76.726067
 N         -77.681747     -210.122162      -77.302383
 H         -79.697372     -211.553375      -74.356331
 H         -79.601265     -209.468170      -76.151878
 C         -79.545105     -212.091171      -73.381142
 C         -78.270844     -212.384644      -72.675827
 C         -80.549263     -213.150391      -73.095078
 C         -78.308960     -212.775513      -71.221268
 C         -80.709747     -213.371780      -71.557526
 C         -79.390167     -213.764313      -70.993790
 H         -77.602272     -211.517288      -72.639679
 H         -77.748909     -213.228394      -73.234497
 H         -81.511070     -212.955536      -73.542038
 H         -80.250626     -214.101013      -73.618530
 H         -78.409271     -211.914734      -70.528214
 H         -77.339912     -213.181656      -71.013985
 H         -81.662979     -213.936081      -71.370514
 H         -80.968102     -212.488373      -71.158279
 H         -79.515327     -213.898788      -69.858025
 H         -79.152283     -214.838638      -71.233620
