20
 generated by VMD
 C         -19.890959      -60.796757      -17.098650
 N         -19.447958      -59.900257      -17.657400
 H         -23.451460      -60.349739      -16.852657
 H         -20.157145      -61.575481      -16.447319
 C         -23.421562      -61.420597      -16.620523
 C         -23.279385      -62.183990      -17.844160
 C         -23.259394      -61.982136      -15.210388
 C         -23.241022      -63.705685      -17.666891
 C         -23.142494      -63.546337      -15.155416
 C         -23.862019      -64.230286      -16.357368
 H         -22.288946      -61.941071      -18.308147
 H         -24.139420      -62.042671      -18.617172
 H         -22.309422      -61.452881      -14.792699
 H         -24.206236      -61.724743      -14.647509
 H         -22.187670      -64.029037      -17.760256
 H         -23.757122      -64.082283      -18.533693
 H         -23.606762      -63.974670      -14.295039
 H         -22.117792      -63.861851      -15.069849
 H         -23.802965      -65.309074      -16.201813
 H         -24.942755      -63.977562      -16.386463
