20
 generated by VMD
 C          -4.971706      -21.061619        1.822269
 N          -5.325088      -20.387966        2.637455
 H          -5.039107      -18.639841       -0.828115
 H          -5.542171      -20.194038       -0.130657
 C          -5.793732      -19.409838       -0.901065
 C          -5.534468      -20.054501       -2.276353
 C          -7.238334      -18.924213       -0.582020
 C          -6.706917      -20.924629       -2.642151
 C          -8.363093      -19.834656       -1.152897
 C          -7.991264      -20.133705       -2.654588
 H          -4.676655      -20.681698       -2.239754
 H          -5.378815      -19.218424       -3.042261
 H          -7.274624      -19.023153        0.503081
 H          -7.315254      -17.935926       -1.022702
 H          -6.683841      -21.847441       -2.013513
 H          -6.608512      -21.260290       -3.728175
 H          -9.317365      -19.271965       -1.142336
 H          -8.532015      -20.783689       -0.623892
 H          -8.822695      -20.672865       -3.104499
 H          -7.782978      -19.212421       -3.209779
