20
 generated by VMD
 C         -71.483704     -198.999405      -64.627182
 N         -70.517197     -198.727142      -65.204140
 H         -72.238129     -196.528244      -66.391373
 H         -72.270309     -199.449753      -64.023216
 C         -72.885025     -195.945267      -67.037170
 C         -73.113403     -194.560272      -66.722450
 C         -73.350281     -196.441391      -68.384865
 C         -73.403625     -193.692398      -67.897545
 C         -74.722992     -195.755310      -68.873352
 C         -74.532211     -194.189987      -68.833817
 H         -72.329018     -194.222137      -66.062119
 H         -73.913788     -194.363144      -65.974342
 H         -72.575569     -196.251892      -69.124237
 H         -73.562347     -197.500961      -68.295250
 H         -72.459610     -193.572144      -68.499947
 H         -73.578079     -192.629578      -67.660927
 H         -75.669762     -195.979843      -68.370560
 H         -74.818535     -196.235352      -69.840210
 H         -74.591179     -193.802979      -69.812378
 H         -75.592033     -193.795074      -68.375504
