20
 generated by VMD
 C         -70.269554     -182.961166      -64.299492
 N         -70.211502     -183.497757      -65.359467
 H         -68.742073     -180.301651      -62.376942
 H         -70.323692     -182.503647      -63.335190
 C         -67.808723     -180.633301      -61.877022
 C         -67.780678     -182.077942      -61.289406
 C         -66.918633     -179.638733      -61.056091
 C         -66.477318     -182.559738      -60.660240
 C         -65.661560     -180.255524      -60.383652
 C         -65.814369     -181.619873      -59.726082
 H         -68.027824     -182.720245      -62.133686
 H         -68.542145     -182.205856      -60.381821
 H         -66.672050     -178.798721      -61.719444
 H         -67.578972     -179.167480      -60.269772
 H         -65.709221     -182.840378      -61.374744
 H         -66.572334     -183.502930      -60.172325
 H         -65.376305     -179.484390      -59.693626
 H         -64.823196     -180.358612      -61.055801
 H         -64.908615     -181.950836      -59.263153
 H         -66.517380     -181.575333      -58.837418
