20
 generated by VMD
 C          -1.850701       -8.671919       -0.428857
 N          -2.173774       -7.924740        0.350466
 H          -3.268886       -9.301773        2.687023
 H          -1.926382      -10.504382        2.732511
 C          -2.965720      -10.345459        2.957350
 C          -3.675357      -11.427860        2.197309
 C          -3.247591      -10.510061        4.404631
 C          -3.449618      -12.863990        2.614957
 C          -2.988173      -11.902970        4.946015
 C          -3.738459      -12.967142        4.147449
 H          -3.409063      -11.409404        1.158887
 H          -4.768774      -11.252521        2.364047
 H          -2.683671       -9.752331        5.054113
 H          -4.316242      -10.237318        4.598489
 H          -2.481953      -13.321463        2.432267
 H          -4.204904      -13.515142        2.205647
 H          -3.259300      -11.952182        6.025873
 H          -1.903379      -12.213132        4.970912
 H          -3.460985      -13.946639        4.525477
 H          -4.820854      -12.932925        4.241006
