20
 generated by VMD
 C         -50.293327     -145.221573      -45.065811
 N         -49.882061     -144.712418      -44.056091
 H         -52.873104     -143.182739      -45.865490
 H         -50.528267     -145.740845      -46.028084
 C         -53.449287     -142.923752      -46.751572
 C         -52.492065     -142.855026      -48.061985
 C         -54.654610     -142.069458      -46.791710
 C         -53.348034     -143.092361      -49.354374
 C         -55.410351     -142.259003      -48.183868
 C         -54.569355     -142.092224      -49.443336
 H         -51.754013     -143.584381      -48.156895
 H         -52.217831     -141.806091      -48.053711
 H         -55.335739     -142.395020      -46.041752
 H         -54.537743     -141.093170      -46.440536
 H         -53.642288     -144.091293      -49.265411
 H         -52.886360     -143.013229      -50.289574
 H         -56.081276     -141.453018      -48.242462
 H         -55.912601     -143.225082      -48.277405
 H         -55.107101     -142.470901      -50.296741
 H         -54.212772     -141.118912      -49.496517
