20
 generated by VMD
 C         -28.514088      -82.490303      -26.334106
 N         -27.834000      -82.630554      -27.240396
 H         -31.623074      -83.759987      -26.381933
 H         -29.084484      -82.388718      -25.444786
 C         -31.273220      -84.666786      -25.748199
 C         -30.736067      -84.412537      -24.434528
 C         -31.903318      -85.970085      -26.023821
 C         -31.799952      -84.878654      -23.281364
 C         -32.978554      -86.250336      -25.022728
 C         -32.378441      -86.306450      -23.606634
 H         -30.489895      -83.345604      -24.301729
 H         -29.959818      -85.026436      -24.218918
 H         -32.219563      -86.024628      -27.085709
 H         -31.245943      -86.847679      -26.026812
 H         -32.685383      -84.208954      -23.274664
 H         -31.193399      -84.921761      -22.391514
 H         -33.331738      -87.241272      -25.221254
 H         -33.871151      -85.566940      -24.906639
 H         -33.014355      -86.583290      -22.695778
 H         -31.497114      -86.929871      -23.525347
