20
 generated by VMD
 C         -21.562170      -52.426605      -11.315486
 N         -21.504438      -52.952465      -10.316311
 H         -19.677135      -50.463585      -14.050011
 H         -21.919561      -52.007683      -12.400124
 C         -18.877197      -51.001869      -13.610642
 C         -18.244999      -51.963623      -14.523899
 C         -18.279142      -50.710381      -12.246594
 C         -16.707542      -51.944221      -14.401513
 C         -16.761801      -50.765518      -12.193547
 C         -16.112949      -51.915707      -12.998176
 H         -18.523670      -51.913399      -15.595677
 H         -18.545904      -52.949722      -14.210435
 H         -18.656488      -49.777050      -11.926007
 H         -18.628145      -51.415367      -11.478127
 H         -16.359695      -51.051434      -14.940193
 H         -16.217869      -52.795914      -14.876968
 H         -16.391987      -50.791470      -11.081835
 H         -16.317646      -49.814217      -12.547579
 H         -14.999914      -51.710724      -12.978806
 H         -16.286283      -52.896164      -12.461111
