20
 generated by VMD
 C         -14.127894      -28.149061       -3.305471
 N         -14.052006      -27.216988       -3.894566
 H         -10.339043      -28.477415       -2.718705
 H          -9.922982      -27.336735       -3.941848
 C          -9.480504      -28.105707       -3.330681
 C          -8.942073      -29.175711       -4.246634
 C          -8.391706      -27.555452       -2.516900
 C          -7.773058      -28.687849       -5.068568
 C          -7.270726      -26.983419       -3.362888
 C          -6.679181      -28.065205       -4.273304
 H          -9.729846      -29.584785       -4.816144
 H          -8.610993      -30.096184       -3.662843
 H          -8.769343      -26.848698       -1.770562
 H          -7.933965      -28.336483       -1.840724
 H          -8.130031      -27.890928       -5.753601
 H          -7.434616      -29.447062       -5.713714
 H          -6.493982      -26.449812       -2.801321
 H          -7.743332      -26.197830       -3.959859
 H          -5.909877      -27.652857       -4.916301
 H          -6.258260      -28.753632       -3.510106
