20
 generated by VMD
 C         -77.971039     -210.142029      -76.304070
 N         -77.219933     -210.987457      -76.200661
 H         -80.504272     -212.924438      -75.046928
 H         -78.542717     -209.312378      -76.411392
 C         -80.309509     -213.166824      -74.051147
 C         -78.916908     -213.336411      -73.546349
 C         -81.215782     -214.064636      -73.318970
 C         -78.596321     -213.065933      -72.140129
 C         -81.108650     -213.782089      -71.823273
 C         -79.646950     -213.877548      -71.384178
 H         -78.233154     -212.706146      -74.137779
 H         -78.555962     -214.389053      -73.785225
 H         -82.219978     -213.802902      -73.623367
 H         -80.933853     -215.198807      -73.524635
 H         -78.757057     -211.991180      -72.009193
 H         -77.588562     -213.314209      -71.795830
 H         -81.610832     -214.515182      -71.304146
 H         -81.581993     -212.841568      -71.405380
 H         -79.651314     -213.657959      -70.298248
 H         -79.370567     -214.918869      -71.391609
