20
 generated by VMD
 C          -1.602260      -13.138526        0.684458
 N          -0.684053      -13.758972        0.515623
 H          -3.952438      -14.134261        1.916401
 H          -5.008914      -14.103854        0.498401
 C          -4.761277      -14.702179        1.416898
 C          -6.105895      -14.693060        2.137319
 C          -4.324951      -16.107304        0.979840
 C          -7.207555      -15.387681        1.391284
 C          -5.504209      -16.806690        0.252138
 C          -6.788678      -16.871111        1.116523
 H          -6.404418      -13.661751        2.247769
 H          -5.940853      -15.139938        3.089341
 H          -3.411136      -16.057953        0.344214
 H          -4.198990      -16.648106        1.906646
 H          -7.407707      -14.838336        0.423170
 H          -8.138576      -15.351592        2.025967
 H          -5.120435      -17.869118        0.137437
 H          -5.668293      -16.318863       -0.732204
 H          -7.569661      -17.281834        0.490389
 H          -6.722445      -17.403536        2.078864
