20
 generated by VMD
 C         -56.454716     -150.105560      -47.679893
 N         -57.620995     -150.346756      -47.728180
 H         -53.187004     -148.016434      -47.613319
 H         -55.338406     -149.977661      -47.554642
 C         -53.676102     -147.838303      -48.493351
 C         -53.071674     -148.467590      -49.608471
 C         -54.476845     -146.595367      -48.541065
 C         -54.166553     -148.695114      -50.673679
 C         -55.489372     -146.778366      -49.659039
 C         -54.950352     -147.425980      -50.913208
 H         -52.635544     -149.478745      -49.200020
 H         -52.388367     -147.876541      -50.229324
 H         -55.131474     -146.499802      -47.683128
 H         -53.770424     -145.746323      -48.671062
 H         -54.892628     -149.508804      -50.493164
 H         -53.655552     -148.855148      -51.615925
 H         -55.864758     -145.854034      -49.775856
 H         -56.265945     -147.518951      -49.270565
 H         -55.795086     -147.638107      -51.538788
 H         -54.376598     -146.704254      -51.497490
