20
 generated by VMD
 C         -70.310532     -181.168915      -63.711960
 N         -71.007545     -182.042236      -63.309357
 H         -68.034195     -181.632233      -60.872276
 H         -69.646080     -180.424240      -64.193268
 C         -67.251297     -180.863983      -60.844650
 C         -65.910896     -181.488800      -60.529125
 C         -67.325783     -179.407547      -60.467785
 C         -64.669304     -180.553055      -60.707287
 C         -66.022758     -178.699524      -60.975163
 C         -64.800934     -179.147369      -60.173561
 H         -65.847450     -182.488159      -61.078289
 H         -65.868370     -181.838028      -59.473907
 H         -68.277504     -179.040375      -60.954529
 H         -67.491264     -179.350647      -59.404823
 H         -64.396431     -180.501022      -61.774395
 H         -63.911938     -181.075012      -60.103882
 H         -66.178276     -177.614792      -60.729767
 H         -65.862999     -178.659195      -62.070347
 H         -63.906979     -178.520874      -60.519123
 H         -64.972664     -179.252380      -59.168385
