20
 generated by VMD
 C         -60.739788     -153.333298      -52.227207
 N         -61.215652     -153.890884      -51.390987
 H         -57.472893     -154.130112      -51.494843
 H         -60.323788     -152.703339      -52.956268
 C         -56.763695     -153.402756      -51.091225
 C         -56.098804     -153.698547      -49.810368
 C         -56.259750     -152.166458      -51.798874
 C         -54.631954     -153.675430      -49.751549
 C         -54.743572     -152.114120      -51.672482
 C         -54.193214     -152.286606      -50.246082
 H         -56.487221     -154.683167      -49.587902
 H         -56.488937     -153.126129      -48.965252
 H         -56.557541     -152.113434      -52.855049
 H         -56.629253     -151.333954      -51.237541
 H         -54.243652     -154.380356      -50.492531
 H         -54.243992     -153.891739      -48.678959
 H         -54.442852     -151.177505      -52.079231
 H         -54.141613     -152.758072      -52.356873
 H         -53.048916     -152.273865      -50.427940
 H         -54.548740     -151.518845      -49.596619
