20
 generated by VMD
 C         -38.721668      -99.127678      -27.083344
 N         -37.743916      -99.121910      -26.453335
 H         -37.074593      -97.388527      -30.114063
 H         -39.669231      -99.025330      -27.554150
 C         -36.141479      -96.976814      -30.453316
 C         -35.475677      -97.505653      -31.628746
 C         -35.313953      -96.170631      -29.548904
 C         -34.428005      -96.519081      -32.275723
 C         -34.117252      -95.360870      -30.194580
 C         -33.362453      -96.258675      -31.102762
 H         -36.267239      -97.640785      -32.350056
 H         -34.888016      -98.458679      -31.389999
 H         -36.037453      -95.471298      -29.109247
 H         -34.950779      -96.730797      -28.644442
 H         -34.736454      -95.549263      -32.569214
 H         -33.992382      -96.844978      -33.248379
 H         -33.487000      -94.976570      -29.330227
 H         -34.533489      -94.491005      -30.618696
 H         -32.534992      -95.894524      -31.648521
 H         -32.922867      -97.134926      -30.480167
