20
 generated by VMD
 C         -49.505905     -127.621979      -39.664478
 N         -50.476856     -127.512054      -40.292473
 H         -47.250160     -127.378006      -42.388416
 H         -48.762901     -127.718689      -38.897251
 C         -46.597954     -126.615341      -41.842007
 C         -45.736626     -127.200470      -40.742352
 C         -46.606274     -125.205673      -41.955475
 C         -44.379940     -126.393562      -40.387299
 C         -45.331749     -124.353630      -41.664928
 C         -44.692768     -124.888542      -40.337574
 H         -45.336189     -128.184753      -40.942448
 H         -46.368137     -127.146805      -39.812019
 H         -46.880928     -125.039955      -42.995537
 H         -47.330585     -124.890846      -41.217022
 H         -43.552776     -126.556816      -41.114182
 H         -44.125252     -126.873093      -39.427593
 H         -45.757568     -123.288429      -41.414097
 H         -44.715111     -124.204941      -42.586853
 H         -43.807850     -124.245125      -40.139694
 H         -45.315659     -124.632988      -39.502296
