20
 generated by VMD
 C         -52.721451     -146.554413      -44.385235
 N         -51.729034     -146.627228      -45.048424
 H         -53.834263     -145.886017      -47.087997
 H         -53.547527     -146.364334      -43.641998
 C         -54.010075     -145.175415      -47.842045
 C         -52.913193     -145.097198      -48.934982
 C         -54.799942     -144.046097      -47.615776
 C         -53.408886     -144.400330      -50.188110
 C         -55.353168     -143.374939      -48.847290
 C         -54.234287     -143.152847      -49.927135
 H         -52.529125     -146.085083      -49.023888
 H         -52.164673     -144.469635      -48.582535
 H         -55.695343     -144.318405      -46.993435
 H         -54.338463     -143.353607      -46.812866
 H         -53.965580     -145.107452      -50.799110
 H         -52.524536     -144.281891      -50.727436
 H         -55.693314     -142.446442      -48.508030
 H         -56.279415     -143.790771      -49.315506
 H         -54.635857     -142.772980      -50.795757
 H         -53.581589     -142.490952      -49.386890
