20
 generated by VMD
 C         -57.054394     -150.853745      -48.087784
 N         -58.093048     -150.907608      -48.528587
 H         -54.540367     -148.778000      -47.300243
 H         -56.124527     -150.927383      -47.612366
 C         -54.271030     -148.544678      -48.374355
 C         -53.531490     -149.382828      -49.446953
 C         -54.552887     -147.051437      -48.726830
 C         -54.319546     -149.304138      -50.730782
 C         -55.354397     -147.080582      -50.078152
 C         -54.527561     -147.869537      -51.137207
 H         -53.230881     -150.340927      -49.208015
 H         -52.602928     -148.817154      -49.429710
 H         -55.263031     -146.576370      -47.960468
 H         -53.664902     -146.374008      -48.841171
 H         -55.290699     -149.857071      -50.697140
 H         -53.756962     -149.800415      -51.541054
 H         -55.591461     -145.983826      -50.336170
 H         -56.288120     -147.591965      -49.863922
 H         -55.236038     -147.850769      -52.016148
 H         -53.617874     -147.348419      -51.380085
