20
 generated by VMD
 C          -1.519228      -11.021803        1.538324
 N          -1.024735      -11.948112        1.084370
 H          -3.713869      -13.116766        0.200934
 H          -5.315534      -12.698467        0.732614
 C          -4.578321      -13.527542        0.831827
 C          -4.046474      -13.855362        2.147432
 C          -5.130891      -14.859062        0.173461
 C          -5.037815      -14.499441        3.124358
 C          -6.182417      -15.575446        1.029784
 C          -5.670454      -15.772767        2.476532
 H          -3.710358      -12.973098        2.695839
 H          -3.323628      -14.620944        2.024920
 H          -5.555985      -14.572989       -0.863563
 H          -4.216969      -15.510310       -0.080316
 H          -5.809446      -13.832880        3.387269
 H          -4.569558      -14.805944        4.063202
 H          -6.439378      -16.556515        0.627588
 H          -7.073302      -14.955221        1.132008
 H          -6.480630      -16.151627        3.140831
 H          -4.885682      -16.610262        2.495028
