20
 generated by VMD
 C         -11.543738      -41.989155       -6.452932
 N         -11.120838      -41.081787       -6.905278
 H         -14.535301      -40.856956       -8.519424
 H         -15.603815      -40.377903       -9.753024
 C         -15.240344      -41.232609       -9.246002
 C         -16.459021      -41.835819       -8.519790
 C         -14.424314      -42.209312      -10.135613
 C         -17.436054      -42.436810       -9.572169
 C         -15.423764      -42.885372      -11.113841
 C         -16.721468      -43.433205      -10.480837
 H         -17.008945      -41.131210       -7.864846
 H         -16.179630      -42.614510       -7.838412
 H         -13.645944      -41.600082      -10.702018
 H         -13.884306      -42.874191       -9.436187
 H         -17.851297      -41.618744      -10.177776
 H         -18.242502      -42.959896       -9.027198
 H         -14.902781      -43.701740      -11.604110
 H         -15.670615      -42.112373      -11.892444
 H         -17.467430      -43.668510      -11.269027
 H         -16.463354      -44.358807       -9.973860
