20
 generated by VMD
 C         -10.512844      -37.661812       -7.577486
 N         -11.396578      -37.027275       -7.797070
 H         -12.612039      -39.891319       -8.296930
 H         -13.770812      -39.475025       -7.003318
 C         -13.636720      -39.967850       -7.963234
 C         -13.891826      -41.465820       -7.804441
 C         -14.487141      -39.369911       -9.121326
 C         -15.330395      -41.919529       -7.736551
 C         -15.948348      -39.693062       -8.860569
 C         -16.157692      -41.181728       -8.851315
 H         -13.373091      -41.787693       -6.883092
 H         -13.572739      -41.990208       -8.695709
 H         -14.386320      -38.234825       -9.155528
 H         -14.181894      -39.841072      -10.044191
 H         -15.652319      -41.641911       -6.708670
 H         -15.398101      -43.007751       -7.928355
 H         -16.572851      -39.212322       -9.685825
 H         -16.232527      -39.204552       -7.956080
 H         -17.219858      -41.395435       -8.710988
 H         -15.879699      -41.646465       -9.754379
