20
 generated by VMD
 C          -2.630553       -9.763303        0.065626
 N          -2.006901       -8.829342        0.309863
 H          -2.078880      -11.381897        2.620088
 H          -2.619748      -12.263742        4.173835
 C          -2.798532      -12.056825        3.099605
 C          -2.550153      -13.453105        2.437060
 C          -4.176026      -11.580151        2.911025
 C          -3.582749      -14.511126        2.864177
 C          -5.279597      -12.615489        3.226755
 C          -4.984402      -13.996119        2.591252
 H          -1.539858      -13.794824        2.787912
 H          -2.566648      -13.356114        1.329061
 H          -4.308788      -10.612677        3.503877
 H          -4.334751      -11.276716        1.853525
 H          -3.511186      -14.698155        3.961788
 H          -3.467211      -15.480203        2.269522
 H          -6.227729      -12.227299        2.895618
 H          -5.289792      -12.721107        4.281159
 H          -5.638880      -14.704576        3.113439
 H          -5.260415      -14.036070        1.518078
