20
 generated by VMD
 C         -27.897345      -82.916382      -27.360622
 N         -27.186163      -83.424019      -26.577660
 H         -31.402287      -84.300407      -26.489832
 H         -28.620405      -82.371178      -28.089081
 C         -31.874731      -85.008667      -25.749624
 C         -31.476482      -84.984108      -24.363676
 C         -32.219017      -86.362152      -26.360771
 C         -32.548759      -85.676926      -23.471558
 C         -33.281315      -87.066727      -25.514206
 C         -32.800514      -87.095871      -24.012381
 H         -31.588722      -83.969704      -24.082325
 H         -30.458708      -85.379890      -24.366400
 H         -32.560764      -86.132874      -27.398554
 H         -31.349762      -86.944702      -26.508276
 H         -33.379192      -85.000862      -23.413292
 H         -32.316822      -85.768158      -22.341120
 H         -33.485199      -88.196358      -25.845026
 H         -34.252068      -86.498589      -25.588846
 H         -33.507359      -87.798553      -23.472649
 H         -31.847792      -87.669205      -24.202557
