20
 generated by VMD
 C         -11.272722      -39.515221       -7.085598
 N         -10.956296      -39.913792       -6.091547
 H         -13.250501      -40.802513       -9.112152
 H         -14.719940      -39.846760       -9.276691
 C         -14.342730      -40.863216       -9.226378
 C         -14.981957      -41.660267       -8.088825
 C         -14.656301      -41.508324      -10.571226
 C         -16.489635      -41.941303       -8.298611
 C         -16.150978      -41.689625      -10.795964
 C         -16.813835      -42.540607       -9.662546
 H         -14.767687      -41.178608       -7.091767
 H         -14.420315      -42.622841       -8.184083
 H         -14.192003      -40.861271      -11.336437
 H         -14.224815      -42.567261      -10.582620
 H         -17.010645      -40.972733       -8.241893
 H         -16.790430      -42.704235       -7.518691
 H         -16.425241      -42.198906      -11.746303
 H         -16.694244      -40.759357      -10.868167
 H         -17.865732      -42.690601       -9.817238
 H         -16.431446      -43.550476       -9.754739
