20
 generated by VMD
 C         -13.972011      -28.091650       -2.988785
 N         -14.050837      -27.163874       -3.617893
 H         -10.284946      -28.147774       -2.843306
 H          -9.882369      -27.096069       -4.239900
 C          -9.491118      -27.828394       -3.581390
 C          -8.894094      -29.028191       -4.213988
 C          -8.454442      -27.222378       -2.584835
 C          -7.648726      -28.577154       -5.034129
 C          -7.170501      -26.787983       -3.328556
 C          -6.561401      -27.946169       -4.129864
 H          -9.594068      -29.405991       -4.921512
 H          -8.561597      -29.858017       -3.539221
 H          -8.917994      -26.301157       -2.185590
 H          -8.211205      -27.981745       -1.740306
 H          -7.976995      -27.919155       -5.811034
 H          -7.316427      -29.446575       -5.491498
 H          -6.387225      -26.578701       -2.575764
 H          -7.326344      -25.896832       -3.940197
 H          -5.747931      -27.636887       -4.782507
 H          -6.036989      -28.644897       -3.397077
