20
 generated by VMD
 C          -5.782558      -21.709522        1.808646
 N          -6.542632      -22.526102        1.918207
 H          -5.246230      -19.055897       -0.688477
 H          -6.534844      -20.282764       -0.122117
 C          -6.080010      -19.781977       -0.954100
 C          -5.574686      -20.982445       -1.829879
 C          -7.147555      -19.012672       -1.689885
 C          -6.808619      -21.838842       -2.266213
 C          -8.356789      -19.854273       -2.072205
 C          -7.951954      -21.065538       -2.895292
 H          -4.774460      -21.517242       -1.303870
 H          -5.116345      -20.570135       -2.778321
 H          -7.509379      -18.143250       -1.007390
 H          -6.682220      -18.363373       -2.512623
 H          -7.167380      -22.446312       -1.418974
 H          -6.448820      -22.581654       -3.001453
 H          -9.044523      -19.295086       -2.704174
 H          -8.948941      -20.107635       -1.195254
 H          -8.828118      -21.732286       -2.999730
 H          -7.735761      -20.762365       -3.930357
