20
 generated by VMD
 C         -51.040188     -130.002640      -44.952297
 N         -51.705040     -129.265503      -45.611164
 H         -48.497616     -129.629425      -43.241604
 H         -50.397434     -130.678543      -44.442162
 C         -47.972179     -129.941513      -42.337181
 C         -47.960751     -131.187988      -41.605820
 C         -47.500912     -128.776932      -41.594360
 C         -46.568947     -131.507233      -41.062466
 C         -46.120811     -128.983643      -41.085842
 C         -45.963993     -130.291443      -40.303673
 H         -48.382530     -132.138748      -42.171654
 H         -48.621910     -131.043091      -40.802174
 H         -47.465546     -127.909058      -42.220295
 H         -48.114071     -128.607956      -40.619488
 H         -45.850510     -131.687805      -41.883396
 H         -46.661057     -132.478668      -40.552700
 H         -45.809723     -128.184906      -40.327602
 H         -45.364281     -129.032806      -41.862106
 H         -44.925152     -130.625641      -40.145771
 H         -46.465271     -130.199158      -39.355904
