20
 generated by VMD
 C         -21.124889      -52.216621       -9.665809
 N         -21.397253      -52.649731      -10.759647
 H         -19.413551      -50.279247      -12.234060
 H         -21.032600      -51.808041       -8.835879
 C         -18.388823      -50.216274      -12.484073
 C         -17.902466      -51.601299      -12.885055
 C         -17.512466      -49.040089      -12.323642
 C         -16.927439      -51.492065      -14.030792
 C         -16.271170      -49.043652      -13.200562
 C         -15.878740      -50.505005      -13.592150
 H         -18.815186      -52.127159      -13.207845
 H         -17.454021      -52.128265      -12.069977
 H         -18.082357      -48.141361      -12.483258
 H         -17.260002      -48.904026      -11.237951
 H         -17.370325      -51.156521      -14.974984
 H         -16.385370      -52.398689      -14.272749
 H         -15.517814      -48.457611      -12.769438
 H         -16.528322      -48.646862      -14.222009
 H         -15.156244      -50.445019      -14.457321
 H         -15.282646      -50.922905      -12.705747
