20
 generated by VMD
 C         -11.313761      -33.560692       -9.245965
 N         -10.527534      -32.983505       -8.751441
 H         -12.151505      -35.374535       -7.652427
 H         -12.525429      -35.025791       -6.016500
 C         -12.590154      -35.800392       -6.743655
 C         -11.716764      -37.050537       -6.446017
 C         -13.978959      -36.367981       -7.118952
 C         -12.262985      -37.868881       -5.321343
 C         -14.589841      -37.149979       -5.975381
 C         -13.712435      -38.326996       -5.548972
 H         -10.696565      -36.741222       -6.197777
 H         -11.584136      -37.641068       -7.414241
 H         -14.567676      -35.503719       -7.360927
 H         -13.891099      -37.004719       -8.037221
 H         -12.243635      -37.336491       -4.357592
 H         -11.717566      -38.830021       -5.044200
 H         -15.568988      -37.570782       -6.317189
 H         -14.721393      -36.470886       -5.129277
 H         -14.071511      -38.788445       -4.654982
 H         -13.632653      -39.053974       -6.388500
