20
 generated by VMD
 C         -69.277519     -180.315155      -60.468719
 N         -69.339661     -181.483932      -60.403599
 H         -67.409790     -177.353516      -59.657478
 H         -69.108658     -179.279114      -60.658875
 C         -66.312325     -177.307053      -59.906815
 C         -65.993706     -177.366867      -61.311348
 C         -65.249161     -177.128159      -58.888985
 C         -64.912544     -176.236252      -61.729023
 C         -64.258659     -175.950912      -59.089222
 C         -63.772610     -176.198761      -60.622833
 H         -66.904289     -177.195160      -61.968235
 H         -65.679207     -178.401123      -61.653683
 H         -65.771507     -177.055115      -57.915703
 H         -64.696289     -178.086182      -58.915894
 H         -65.410774     -175.276535      -61.681641
 H         -64.584229     -176.591324      -62.643620
 H         -63.522053     -175.974487      -58.249802
 H         -64.849297     -175.038803      -59.192657
 H         -63.208717     -175.280991      -60.853439
 H         -62.993889     -176.984528      -60.623478
