20
 generated by VMD
 C         -51.197884     -129.714767      -45.236572
 N         -51.605850     -130.200851      -46.187252
 H         -48.553143     -130.349701      -43.599201
 H         -50.489948     -129.226685      -44.648609
 C         -48.037624     -130.504318      -42.576881
 C         -48.167862     -131.830856      -41.969269
 C         -47.664955     -129.330917      -41.838764
 C         -46.895584     -132.142166      -41.209721
 C         -46.416939     -129.635620      -40.972008
 C         -46.522457     -131.018829      -40.200039
 H         -48.253441     -132.722717      -42.678257
 H         -48.993034     -131.921143      -41.336262
 H         -47.365845     -128.644577      -42.527409
 H         -48.526028     -129.078308      -41.172649
 H         -46.022469     -132.321793      -41.900799
 H         -46.998623     -133.163406      -40.747856
 H         -46.135426     -128.836716      -40.230534
 H         -45.509220     -129.765488      -41.609829
 H         -45.450714     -131.166183      -39.854580
 H         -47.272205     -130.777756      -39.436665
