20
 generated by VMD
 C         -27.482832      -86.651878      -26.551220
 N         -28.433025      -86.070824      -26.727148
 H         -31.101442      -86.098343      -25.453665
 H         -26.488958      -87.139191      -26.253628
 C         -31.979269      -86.634560      -25.632694
 C         -32.806904      -87.186760      -24.503229
 C         -31.999233      -87.263016      -26.910980
 C         -34.242161      -87.450943      -24.904711
 C         -33.491974      -87.495056      -27.361126
 C         -34.277824      -88.177666      -26.180273
 H         -32.683796      -86.584259      -23.615799
 H         -32.441814      -88.243599      -24.111338
 H         -31.586800      -86.619865      -27.663548
 H         -31.469858      -88.209221      -26.941051
 H         -34.823982      -86.519554      -24.860247
 H         -34.753330      -88.077255      -24.214186
 H         -33.540932      -88.122383      -28.346975
 H         -33.888393      -86.522392      -27.580627
 H         -35.316368      -88.331879      -26.528284
 H         -33.770561      -89.212563      -26.242260
