20
 generated by VMD
 C         -49.550449     -127.714066      -40.125626
 N         -50.534935     -127.680267      -40.750854
 H         -47.490852     -127.345177      -41.852310
 H         -48.710114     -127.791183      -39.422020
 C         -46.698929     -126.677254      -41.449448
 C         -45.855434     -127.309471      -40.441715
 C         -46.808945     -125.276115      -41.685917
 C         -44.490292     -126.613525      -40.454773
 C         -45.446053     -124.640228      -41.746582
 C         -44.425671     -125.060776      -40.614113
 H         -45.667854     -128.389191      -40.666283
 H         -46.258705     -127.201012      -39.482727
 H         -47.379799     -125.073326      -42.629803
 H         -47.621952     -124.755531      -41.006447
 H         -44.079189     -127.075905      -41.379715
 H         -43.811436     -127.033928      -39.705166
 H         -45.498417     -123.550331      -41.710888
 H         -45.065937     -124.905304      -42.767235
 H         -43.399452     -124.832092      -40.926285
 H         -44.630257     -124.412758      -39.695183
