20
 generated by VMD
 C         -70.245537     -183.357956      -65.796707
 N         -69.311684     -182.657593      -65.931198
 H         -68.559845     -184.953873      -63.073025
 H         -71.086899     -184.045380      -65.736420
 C         -68.051598     -184.340271      -62.295456
 C         -68.138687     -184.596710      -60.768196
 C         -67.930115     -182.894760      -62.667259
 C         -67.214470     -183.746338      -59.840450
 C         -67.099792     -182.009399      -61.728664
 C         -67.572212     -182.268509      -60.304787
 H         -68.074303     -185.665268      -60.549599
 H         -69.211189     -184.232956      -60.664951
 H         -67.542542     -182.724014      -63.773388
 H         -68.949570     -182.546524      -62.784950
 H         -66.201775     -184.124329      -59.983089
 H         -67.526474     -184.018600      -58.767960
 H         -66.977852     -180.937805      -61.903469
 H         -66.034386     -182.322510      -61.893559
 H         -66.971092     -181.483734      -59.635471
 H         -68.622375     -182.170547      -60.131050
