20
 generated by VMD
 C         -27.910458      -84.882446      -26.646267
 N         -27.418108      -85.960701      -26.591743
 H         -31.629793      -84.763390      -25.681385
 H         -28.282471      -83.933189      -26.755381
 C         -32.152676      -85.740883      -25.747044
 C         -32.390495      -86.359879      -24.484743
 C         -32.100407      -86.675385      -26.895395
 C         -33.797974      -87.016991      -24.353844
 C         -33.447491      -87.542503      -26.895384
 C         -33.735893      -88.139236      -25.432142
 H         -32.379154      -85.524940      -23.760353
 H         -31.601362      -87.177284      -24.249865
 H         -32.004005      -85.911827      -27.743187
 H         -31.170242      -87.236809      -26.866198
 H         -34.581894      -86.347740      -24.825047
 H         -33.891315      -87.500870      -23.362429
 H         -33.397533      -88.277122      -27.656445
 H         -34.325356      -86.910316      -27.043106
 H         -34.540836      -88.806496      -25.560894
 H         -32.978939      -88.822495      -25.088285
