20
 generated by VMD
 C         -68.661713     -193.924942      -66.575043
 N         -67.727150     -193.771042      -65.935730
 H         -70.112465     -190.951569      -65.999214
 H         -69.345634     -194.044083      -67.459595
 C         -71.154182     -190.994324      -65.777283
 C         -72.208244     -190.324234      -66.564796
 C         -71.449554     -191.415512      -64.394928
 C         -73.443588     -191.289368      -66.677681
 C         -72.932236     -191.364899      -64.058273
 C         -73.770737     -191.903717      -65.264130
 H         -71.791641     -190.035034      -67.580795
 H         -72.584969     -189.336029      -66.123184
 H         -71.102867     -192.530151      -64.198372
 H         -70.849541     -190.860138      -63.643311
 H         -73.208679     -192.219955      -67.319550
 H         -74.337883     -190.722565      -67.119102
 H         -73.379997     -190.372574      -63.878143
 H         -73.212990     -191.979874      -63.156773
 H         -73.786789     -192.942764      -65.337944
 H         -74.866333     -191.790680      -64.863716
