20
 generated by VMD
 C         -78.059204     -204.096619      -69.980797
 N         -79.137680     -203.746307      -69.985970
 H         -76.078209     -202.754196      -67.704697
 H         -77.094284     -204.432968      -69.772064
 C         -75.439545     -202.575958      -68.568741
 C         -75.911835     -201.515564      -69.565887
 C         -74.306160     -203.482544      -69.001740
 C         -74.894135     -201.344406      -70.715797
 C         -73.201149     -202.578506      -69.418251
 C         -73.381805     -201.430939      -70.320587
 H         -76.217087     -200.560898      -69.123344
 H         -76.895592     -201.897415      -70.022552
 H         -73.985214     -204.053452      -68.135674
 H         -74.647713     -204.072113      -69.870041
 H         -75.126358     -200.475327      -71.344261
 H         -75.102768     -202.222946      -71.288834
 H         -72.394707     -203.194000      -69.913177
 H         -72.659729     -202.166168      -68.483612
 H         -73.169708     -200.547806      -69.587395
 H         -72.631042     -201.484955      -71.065697
