20
 generated by VMD
 C         -50.872314     -129.422714      -45.211555
 N         -50.951393     -129.961624      -44.187721
 H         -49.036137     -128.658127      -42.058342
 H         -50.923916     -128.755798      -46.032555
 C         -48.153538     -128.860779      -41.335190
 C         -47.894100     -130.294632      -40.977539
 C         -47.184769     -127.722076      -40.943996
 C         -46.490044     -130.587524      -41.439224
 C         -45.779293     -128.089035      -41.303532
 C         -45.434277     -129.576035      -40.886189
 H         -48.626011     -130.912704      -41.555813
 H         -48.001465     -130.452179      -39.838291
 H         -47.289799     -126.727013      -41.450623
 H         -47.318073     -127.518196      -39.932137
 H         -46.592068     -130.586914      -42.493038
 H         -46.093075     -131.507690      -41.149799
 H         -44.915569     -127.612152      -40.851532
 H         -45.689655     -128.138443      -42.367905
 H         -44.495930     -129.818787      -41.482124
 H         -45.317131     -129.739304      -39.829063
