20
 generated by VMD
 C          -1.005046      -13.416805        0.821394
 N          -0.292676      -13.403915       -0.030394
 H          -4.586866      -13.453835        2.024754
 H          -5.581493      -13.704287        0.654621
 C          -5.228248      -14.184211        1.568773
 C          -6.390943      -14.556395        2.459764
 C          -4.411755      -15.315674        1.070019
 C          -7.262110      -15.603962        1.662767
 C          -5.198293      -16.432695        0.406745
 C          -6.461264      -16.815140        1.216319
 H          -7.022988      -13.629894        2.740243
 H          -6.041180      -14.976849        3.412638
 H          -3.678005      -14.922106        0.313109
 H          -3.818446      -15.760169        1.985955
 H          -7.718919      -15.107181        0.838663
 H          -8.063543      -15.957662        2.280578
 H          -4.593534      -17.303392        0.302438
 H          -5.540180      -16.125511       -0.580548
 H          -7.024575      -17.470110        0.558162
 H          -6.124152      -17.442596        2.056448
