20
 generated by VMD
 C         -68.826431     -193.778549      -64.566177
 N         -68.425499     -194.286987      -65.516754
 H         -71.074318     -193.599579      -67.747238
 H         -68.891182     -193.305054      -63.569233
 C         -71.850128     -193.069794      -67.201752
 C         -71.479858     -191.884476      -66.416389
 C         -73.216896     -193.733490      -67.292343
 C         -72.783592     -191.198410      -65.942101
 C         -74.288780     -193.298096      -66.269630
 C         -73.753113     -192.250732      -65.237061
 H         -70.840050     -191.097198      -66.910133
 H         -70.945518     -192.102554      -65.563316
 H         -73.503151     -193.739594      -68.397743
 H         -73.036858     -194.819244      -67.268829
 H         -73.285057     -190.697723      -66.717888
 H         -72.582069     -190.497559      -65.136032
 H         -74.779381     -194.161316      -65.792999
 H         -75.063072     -192.689011      -66.814552
 H         -74.619987     -191.567032      -64.740868
 H         -73.233185     -192.664841      -64.451942
