20
 generated by VMD
 C         -11.606875      -41.503178       -6.811623
 N         -11.446187      -42.405853       -6.197721
 H         -14.694131      -42.409004       -8.282526
 H         -15.193957      -41.394207       -9.613023
 C         -15.327830      -42.421940       -9.219202
 C         -16.779377      -42.654873       -8.851374
 C         -14.760406      -43.438339      -10.218245
 C         -17.632490      -42.504288      -10.146528
 C         -15.541865      -43.463207      -11.498977
 C         -17.071543      -43.357727      -11.307804
 H         -17.140381      -41.910076       -8.110501
 H         -16.931879      -43.673771       -8.439827
 H         -13.691432      -43.182106      -10.463975
 H         -14.947439      -44.433723       -9.821578
 H         -17.589334      -41.433144      -10.451218
 H         -18.637747      -42.822304       -9.814548
 H         -15.280040      -44.322056      -12.054964
 H         -15.210209      -42.601486      -12.167390
 H         -17.635298      -43.135700      -12.207589
 H         -17.328417      -44.402309      -11.144939
