20
 generated by VMD
 C         -19.950201      -50.163322      -10.020109
 N         -20.011677      -51.246880       -9.535028
 H         -16.784264      -48.471291      -10.060308
 H         -19.799263      -49.341499      -10.527710
 C         -16.960382      -48.843998      -11.056389
 C         -15.974628      -49.792156      -11.625504
 C         -17.645021      -47.876324      -11.932822
 C         -16.204983      -50.169121      -13.064030
 C         -17.785923      -48.403175      -13.365655
 C         -16.505255      -49.000748      -13.983570
 H         -15.808743      -50.700268      -11.033409
 H         -14.991714      -49.280231      -11.518751
 H         -18.676874      -47.690086      -11.602634
 H         -17.089205      -46.930546      -11.983156
 H         -17.066418      -50.883621      -13.044640
 H         -15.437660      -50.856712      -13.492510
 H         -18.222673      -47.654785      -13.949044
 H         -18.647741      -49.168961      -13.467343
 H         -16.737082      -49.362038      -15.041671
 H         -15.637351      -48.288254      -14.006166
