20
 generated by VMD
 C         -73.857803     -200.478134      -65.662933
 N         -73.191963     -201.107681      -64.946144
 H         -72.487892     -197.601379      -66.566986
 H         -74.388336     -199.774780      -66.219276
 C         -72.900230     -197.062195      -67.390869
 C         -73.869453     -195.937073      -67.261208
 C         -72.729767     -197.627014      -68.724899
 C         -73.877365     -195.085602      -68.581413
 C         -73.789474     -197.291580      -69.822159
 C         -74.485077     -195.903229      -69.699066
 H         -73.485512     -195.101501      -66.500580
 H         -74.793015     -196.407761      -67.047302
 H         -71.824081     -197.184616      -69.086769
 H         -72.714790     -198.697037      -68.650864
 H         -72.888428     -194.674515      -68.899055
 H         -74.439133     -194.151520      -68.504692
 H         -74.605972     -197.984406      -69.614563
 H         -73.440361     -197.601929      -70.819611
 H         -74.371513     -195.227280      -70.550270
 H         -75.677208     -196.003906      -69.437332
