20
 generated by VMD
 C          -5.762743      -21.611063        1.762547
 N          -6.522666      -22.436752        1.791829
 H          -5.193119      -19.209179       -0.601080
 H          -6.428014      -20.147526        0.043649
 C          -6.075064      -19.844824       -0.941705
 C          -5.558561      -20.980988       -1.819439
 C          -7.183672      -18.956350       -1.630169
 C          -6.754076      -21.820091       -2.221165
 C          -8.383563      -19.838888       -2.023809
 C          -7.943697      -21.042484       -2.861091
 H          -4.850922      -21.652105       -1.261329
 H          -5.065467      -20.578192       -2.734378
 H          -7.521945      -18.062796       -0.945187
 H          -6.772801      -18.660244       -2.644339
 H          -7.161011      -22.296803       -1.302806
 H          -6.455226      -22.635120       -2.905707
 H          -9.141436      -19.227253       -2.495576
 H          -8.804857      -20.258661       -1.109340
 H          -8.802207      -21.739202       -3.030493
 H          -7.557413      -20.659479       -3.830150
