20
 generated by VMD
 C         -67.522675     -180.058624      -58.311283
 N         -68.396950     -180.026657      -59.091724
 H         -67.270691     -176.548950      -59.835949
 H         -66.776886     -180.069641      -57.562962
 C         -66.366333     -176.135315      -60.178852
 C         -66.083931     -175.335831      -61.394062
 C         -65.153427     -176.752350      -59.362656
 C         -64.801849     -174.464584      -61.257847
 C         -64.038994     -175.768433      -59.173836
 C         -63.624279     -175.126358      -60.518925
 H         -66.757027     -174.464325      -61.511364
 H         -66.031631     -175.983322      -62.225765
 H         -65.581474     -176.978882      -58.306488
 H         -64.905869     -177.692093      -59.897663
 H         -65.141350     -173.576279      -60.647060
 H         -64.417740     -174.120087      -62.324512
 H         -63.204845     -176.432709      -58.873173
 H         -64.060715     -175.076538      -58.347374
 H         -62.973999     -174.278381      -60.410496
 H         -63.277344     -175.889374      -61.145111
