20
 generated by VMD
 C         -47.417053     -124.697182      -38.002697
 N         -47.603470     -125.705421      -38.602566
 H         -44.815247     -122.421150      -37.758793
 H         -47.058392     -123.783760      -37.434925
 C         -44.758053     -122.463043      -38.809731
 C         -43.644623     -123.190826      -39.466305
 C         -45.695938     -121.618309      -39.536114
 C         -44.089081     -123.694839      -40.869301
 C         -46.151051     -122.182289      -40.850586
 C         -44.987103     -122.786896      -41.655460
 H         -43.314671     -123.994637      -38.824009
 H         -42.757744     -122.549019      -39.650642
 H         -46.541775     -121.620628      -38.851124
 H         -45.372105     -120.607285      -39.602001
 H         -44.680527     -124.643951      -40.695816
 H         -43.184280     -123.695808      -41.578171
 H         -46.606991     -121.500298      -41.619923
 H         -46.878750     -123.125404      -40.662128
 H         -45.401543     -123.468864      -42.456203
 H         -44.428440     -122.026649      -42.242599
