20
 generated by VMD
 C         -69.969070     -183.017838      -65.957176
 N         -71.082901     -183.118835      -65.683632
 H         -67.297920     -183.107849      -63.124718
 H         -68.929153     -182.840546      -66.135643
 C         -67.407654     -182.683777      -62.113525
 C         -67.677887     -183.579224      -61.023056
 C         -67.307045     -181.212570      -61.977474
 C         -66.878349     -183.208725      -59.755615
 C         -66.247673     -180.883636      -60.857449
 C         -66.696472     -181.659851      -59.557709
 H         -67.429352     -184.600372      -61.333675
 H         -68.785667     -183.776581      -60.679901
 H         -66.805069     -180.724930      -62.838932
 H         -68.367363     -180.751556      -61.822803
 H         -65.895966     -183.537552      -59.748207
 H         -67.300392     -183.815689      -58.866154
 H         -66.277122     -179.769577      -60.708790
 H         -65.195305     -181.157089      -61.173409
 H         -65.969673     -181.393829      -58.726940
 H         -67.699844     -181.307968      -59.271206
