20
 generated by VMD
 C         -27.971081      -72.569595      -17.991528
 N         -28.127270      -73.588615      -17.385525
 H         -25.054585      -71.264397      -18.627531
 H         -27.603037      -71.721138      -18.418947
 C         -25.154350      -71.287521      -19.721207
 C         -24.326174      -72.231133      -20.518942
 C         -25.835649      -70.236389      -20.429514
 C         -25.233063      -72.710419      -21.765030
 C         -26.367897      -70.464302      -21.819815
 C         -25.712315      -71.554565      -22.587471
 H         -24.052029      -73.178337      -19.827417
 H         -23.338135      -71.794868      -20.949533
 H         -26.754618      -69.950974      -19.931705
 H         -25.144049      -69.366699      -20.424582
 H         -25.969841      -73.340454      -21.268080
 H         -24.572611      -73.314140      -22.398724
 H         -26.193323      -69.567650      -22.506908
 H         -27.492615      -70.707932      -21.740110
 H         -26.391821      -71.977921      -23.328444
 H         -24.954599      -71.148315      -23.261038
