20
 generated by VMD
 C         -47.243687     -137.431564      -46.193966
 N         -47.178089     -136.799377      -47.110706
 H         -50.352390     -136.458328      -44.574181
 H         -47.490520     -138.090912      -45.375275
 C         -51.210033     -137.154907      -44.705219
 C         -51.472481     -137.956650      -45.993027
 C         -52.413372     -136.991806      -43.896194
 C         -52.111031     -139.278473      -45.716026
 C         -53.119091     -138.298615      -43.598976
 C         -53.423462     -139.135498      -44.951584
 H         -50.516335     -138.134155      -46.360249
 H         -51.867886     -137.349945      -46.873833
 H         -52.064899     -136.445374      -42.995392
 H         -53.012001     -136.208939      -44.440781
 H         -51.406010     -139.902359      -45.247581
 H         -52.348217     -139.730560      -46.674454
 H         -54.007267     -138.110870      -43.028538
 H         -52.474312     -139.007050      -43.105743
 H         -53.834343     -140.050461      -44.802620
 H         -54.145866     -138.669235      -45.614468
