20
 generated by VMD
 C         -41.249641     -102.947533      -35.709404
 N         -41.247471     -104.083817      -35.484482
 H         -39.421188     -104.402504      -33.494240
 H         -40.883987     -101.950867      -35.877567
 C         -38.712048     -105.051598      -33.013210
 C         -37.261482     -104.761040      -32.913086
 C         -39.163754     -106.453407      -32.747929
 C         -36.650906     -105.270607      -31.514072
 C         -38.567284     -106.764923      -31.303896
 C         -37.144482     -106.615532      -31.039940
 H         -37.069153     -103.699318      -32.906284
 H         -36.636765     -105.240997      -33.724110
 H         -40.220043     -106.601967      -32.770473
 H         -38.744434     -107.152428      -33.458565
 H         -36.536980     -104.491699      -30.749846
 H         -35.559723     -105.363899      -31.645033
 H         -38.824894     -107.667221      -30.863396
 H         -39.137939     -106.000130      -30.696102
 H         -36.867390     -106.700409      -29.989000
 H         -36.593315     -107.424599      -31.548965
