20
 generated by VMD
 C         -38.742489     -108.385506      -36.817764
 N         -37.749538     -108.832718      -37.162472
 H         -41.701416     -109.481026      -36.208374
 H         -39.523418     -107.841904      -36.365730
 C         -41.471279     -110.090393      -35.241566
 C         -40.776714     -111.357178      -35.484932
 C         -42.445511     -109.880493      -34.133690
 C         -40.391647     -112.033752      -34.269363
 C         -42.109291     -110.714149      -32.948967
 C         -41.601391     -112.141052      -33.291946
 H         -39.888409     -110.970123      -36.018200
 H         -41.233677     -111.901955      -36.260632
 H         -42.272110     -108.825249      -33.896542
 H         -43.440598     -110.095505      -34.560257
 H         -39.623081     -111.574707      -33.597923
 H         -39.934105     -112.966576      -34.544605
 H         -42.947163     -110.826126      -32.203438
 H         -41.221512     -110.200027      -32.489689
 H         -41.274532     -112.606392      -32.393631
 H         -42.499073     -112.648071      -33.827766
