20
 generated by VMD
 C          -3.558647      -19.329010        2.707340
 N          -3.427281      -18.314049        3.152103
 H          -5.439438      -20.424324        0.192636
 H          -6.199706      -21.353668       -1.102062
 C          -6.169249      -20.332222       -0.664613
 C          -5.655056      -19.344809       -1.668450
 C          -7.539841      -19.821529       -0.178594
 C          -6.569682      -19.034624       -2.852860
 C          -8.492997      -19.500814       -1.382174
 C          -7.910104      -18.438421       -2.346237
 H          -4.748425      -19.771734       -2.072877
 H          -5.316504      -18.325729       -1.247721
 H          -7.953060      -20.633377        0.405712
 H          -7.478598      -19.056700        0.546284
 H          -6.672575      -19.957785       -3.420110
 H          -6.085856      -18.380939       -3.568039
 H          -9.471087      -19.245789       -1.027132
 H          -8.604313      -20.465647       -1.901466
 H          -8.632755      -18.182034       -3.166799
 H          -7.713195      -17.479881       -1.830487
