20
 generated by VMD
 C         -78.693146     -208.377121      -76.883217
 N         -79.088005     -208.363083      -75.772377
 H         -78.997681     -209.364746      -73.260513
 H         -78.527817     -208.487091      -78.026207
 C         -78.566551     -209.964539      -72.488586
 C         -77.205620     -209.580429      -71.992981
 C         -79.102638     -211.321289      -71.969505
 C         -77.042747     -209.749863      -70.532822
 C         -79.078491     -211.232010      -70.475410
 C         -77.679596     -210.973587      -70.010124
 H         -76.961281     -208.548935      -72.210312
 H         -76.499405     -210.183289      -72.503845
 H         -80.144043     -211.572952      -72.233086
 H         -78.486504     -212.109894      -72.431984
 H         -77.519165     -208.907944      -69.992317
 H         -75.982132     -209.634003      -70.275063
 H         -79.370300     -212.162674      -70.245583
 H         -79.810829     -210.504868      -69.983765
 H         -77.888885     -210.885605      -68.947159
 H         -76.944466     -211.767487      -70.235260
