20
 generated by VMD
 C         -13.191580      -29.788260       -7.413056
 N         -13.614315      -29.240154       -8.289213
 H         -11.647903      -30.430929       -4.963749
 H         -10.306412      -30.136538       -3.894682
 C         -10.775405      -30.912468       -4.429488
 C          -9.727702      -31.450069       -5.445911
 C         -11.400056      -32.000301       -3.553537
 C          -8.745340      -32.442371       -4.855200
 C         -10.392679      -33.116096       -3.073796
 C          -9.467356      -33.625465       -4.227166
 H          -9.148053      -30.685593       -5.925513
 H         -10.307513      -31.977137       -6.205629
 H         -11.850063      -31.585405       -2.641490
 H         -12.206865      -32.485508       -4.081242
 H          -8.055327      -31.902271       -4.162094
 H          -8.179400      -32.814152       -5.723276
 H         -11.060200      -33.861462       -2.663424
 H          -9.806339      -32.667202       -2.228827
 H          -8.640241      -34.220047       -3.856439
 H          -9.995308      -34.120766       -5.049161
