20
 generated by VMD
 C         -73.959267     -201.008408      -65.440033
 N         -72.815338     -201.092514      -65.358086
 H         -73.915565     -198.042526      -66.448311
 H         -75.026947     -200.663818      -65.386948
 C         -74.083527     -197.557617      -67.422501
 C         -74.566391     -196.089127      -67.588348
 C         -73.518005     -198.169067      -68.684288
 C         -73.462700     -195.433533      -68.493248
 C         -73.714394     -197.387863      -69.986610
 C         -73.482155     -195.904434      -69.936707
 H         -74.669441     -195.581009      -66.694496
 H         -75.577103     -196.334610      -68.068634
 H         -72.431282     -198.301178      -68.537338
 H         -73.826393     -199.195160      -68.779099
 H         -72.514565     -195.491531      -67.977852
 H         -73.696068     -194.347672      -68.459351
 H         -74.834251     -197.413788      -70.198669
 H         -73.144386     -197.783325      -70.848198
 H         -72.478615     -195.583984      -70.397331
 H         -74.104698     -195.416885      -70.580193
