20
 generated by VMD
 C         -30.212303      -80.183304      -26.344589
 N         -29.326914      -79.428627      -26.520618
 H         -28.426113      -82.773460      -25.300386
 H         -31.041138      -80.773499      -26.317560
 C         -29.247009      -82.847313      -24.548496
 C         -28.993231      -82.064423      -23.420090
 C         -30.060707      -84.040649      -24.726038
 C         -30.306273      -82.012428      -22.572334
 C         -31.235497      -84.122810      -23.798878
 C         -30.824734      -83.425438      -22.355448
 H         -28.663820      -81.070030      -23.633820
 H         -28.155048      -82.546890      -22.803274
 H         -30.449501      -84.049164      -25.749048
 H         -29.350973      -84.862778      -24.538666
 H         -31.056223      -81.431221      -23.244471
 H         -30.032778      -81.545097      -21.681942
 H         -31.499252      -85.169403      -23.566544
 H         -32.150372      -83.595413      -24.218565
 H         -31.655184      -83.270691      -21.743166
 H         -30.118824      -84.147148      -21.848112
