20
 generated by VMD
 C         -69.303223     -180.346069      -59.785336
 N         -68.793777     -181.182129      -60.433113
 H         -67.251793     -177.787094      -59.790352
 H         -69.830391     -179.666489      -59.119965
 C         -66.394424     -176.974213      -59.844616
 C         -65.926712     -176.776215      -61.384998
 C         -65.326202     -176.869919      -58.833927
 C         -64.865433     -175.755035      -61.604313
 C         -64.129982     -176.146667      -59.197510
 C         -63.729465     -176.084015      -60.669346
 H         -66.819649     -176.540985      -61.956669
 H         -65.762032     -177.822067      -61.770248
 H         -65.654106     -176.504318      -57.872467
 H         -64.992256     -177.973663      -58.659328
 H         -65.216141     -174.764343      -61.557800
 H         -64.522743     -175.833755      -62.667580
 H         -63.270481     -176.469864      -58.551628
 H         -64.306267     -175.048813      -59.012043
 H         -62.921322     -175.342422      -60.862579
 H         -63.179665     -177.096634      -60.894238
