20
 generated by VMD
 C         -32.515148      -93.167397      -25.556007
 N         -32.892048      -94.255409      -25.623283
 H         -33.484562      -94.342476      -28.408092
 H         -32.207062      -92.072380      -25.459883
 C         -34.238739      -94.005074      -29.114689
 C         -35.511738      -93.580643      -28.387800
 C         -33.786461      -93.272041      -30.300331
 C         -35.277573      -92.175179      -28.046917
 C         -33.476902      -91.907425      -29.938742
 C         -34.685398      -91.297043      -29.191721
 H         -35.634995      -94.330734      -27.614447
 H         -36.271576      -93.773788      -29.090794
 H         -32.918766      -93.734901      -30.757849
 H         -34.624115      -93.322327      -31.023760
 H         -34.619534      -92.179726      -27.124462
 H         -36.208389      -91.740479      -27.712330
 H         -33.195385      -91.314499      -30.864235
 H         -32.652687      -91.853905      -29.256079
 H         -34.510818      -90.265701      -28.903255
 H         -35.573639      -91.079124      -29.799383
