20
 generated by VMD
 C         -70.079659     -181.270630      -63.152603
 N         -71.202888     -181.519882      -63.298187
 H         -67.673973     -181.669403      -60.990364
 H         -68.998550     -181.064407      -63.094700
 C         -66.952362     -180.865204      -60.997002
 C         -65.625931     -181.282486      -60.331104
 C         -67.372200     -179.515930      -60.694065
 C         -64.579208     -180.254684      -60.766838
 C         -66.181732     -178.495102      -60.801014
 C         -64.837814     -178.944244      -60.270638
 H         -65.348267     -182.293335      -60.673767
 H         -65.740417     -181.111282      -59.260384
 H         -68.234772     -179.035538      -61.297817
 H         -67.699188     -179.587479      -59.564034
 H         -64.402878     -180.265503      -61.915092
 H         -63.665611     -180.809906      -60.378941
 H         -66.416389     -177.627167      -60.167061
 H         -66.021217     -178.235855      -61.840565
 H         -64.015297     -178.156113      -60.410622
 H         -64.872414     -178.993393      -59.146347
