20
 generated by VMD
 C         -45.540581     -123.516212      -35.418732
 N         -46.116726     -124.497177      -35.381069
 H         -45.159412     -122.604988      -38.939907
 H         -45.179222     -122.562965      -35.652935
 C         -44.738075     -121.544662      -39.081600
 C         -43.311890     -121.403496      -39.624783
 C         -45.860546     -120.682205      -39.479294
 C         -43.368778     -121.093117      -41.142937
 C         -45.903557     -120.434143      -41.012859
 C         -44.435642     -120.062172      -41.502281
 H         -42.948700     -122.395248      -39.413425
 H         -42.788345     -120.554558      -39.059200
 H         -46.867046     -121.020927      -39.149944
 H         -45.691814     -119.658127      -38.889553
 H         -43.614376     -122.001823      -41.691589
 H         -42.404301     -120.592285      -41.445312
 H         -46.610737     -119.736053      -41.252415
 H         -46.303482     -121.313332      -41.496937
 H         -44.479965     -120.174980      -42.650780
 H         -44.168850     -119.000290      -41.343369
