20
 generated by VMD
 C         -13.446941      -45.159714       -5.922126
 N         -14.352315      -44.674831       -6.374116
 H         -15.173818      -44.459370       -8.953679
 H         -14.370148      -43.783775      -10.464027
 C         -15.257425      -44.288486      -10.071193
 C         -16.477142      -43.385422      -10.276423
 C         -15.622704      -45.683712      -10.669901
 C         -16.961504      -43.130577      -11.723946
 C         -16.230366      -45.489292      -12.086330
 C         -17.357256      -44.459667      -12.302364
 H         -16.195644      -42.429520       -9.811922
 H         -17.320629      -43.830608       -9.789796
 H         -14.785946      -46.359245      -10.811788
 H         -16.402214      -46.152439      -10.012795
 H         -16.160034      -42.645645      -12.307807
 H         -17.805618      -42.420879      -11.667371
 H         -16.585674      -46.505936      -12.381153
 H         -15.427459      -45.177765      -12.699000
 H         -17.642191      -44.287766      -13.378240
 H         -18.286200      -44.909016      -11.847848
