20
 generated by VMD
 C         -17.524557      -48.203289       -6.910113
 N         -16.965769      -47.268707       -6.674033
 H         -16.506981      -48.686611      -10.406716
 H         -15.580428      -48.610447      -11.991809
 C         -16.328260      -48.095646      -11.342790
 C         -15.748806      -46.670555      -11.054851
 C         -17.574736      -47.970085      -12.222070
 C         -15.534863      -45.803944      -12.306194
 C         -17.364187      -47.016201      -13.430857
 C         -16.815655      -45.623611      -13.123472
 H         -14.822138      -46.845608      -10.563168
 H         -16.433468      -46.153069      -10.381852
 H         -17.764168      -48.977509      -12.623162
 H         -18.496405      -47.737877      -11.694297
 H         -14.856575      -46.343307      -12.969485
 H         -15.025760      -44.859062      -12.124414
 H         -18.369743      -46.896698      -13.950806
 H         -16.737761      -47.526066      -14.122661
 H         -16.656063      -45.021366      -14.025903
 H         -17.586424      -45.033062      -12.553370
