20
 generated by VMD
 C          -1.468522       -8.975430        0.114467
 N          -2.594421       -9.161655        0.013932
 H          -2.417014      -10.384888        2.654017
 H          -2.102648      -11.526388        3.783538
 C          -2.811244      -11.366854        3.008305
 C          -2.796876      -12.544879        2.009677
 C          -4.239158      -11.192098        3.619702
 C          -3.288138      -13.881887        2.597813
 C          -4.708027      -12.515657        4.223231
 C          -4.682245      -13.675645        3.221697
 H          -1.795983      -12.621068        1.574774
 H          -3.456840      -12.301921        1.111449
 H          -4.236661      -10.298915        4.235552
 H          -4.814105      -10.995000        2.652174
 H          -2.558496      -14.264388        3.359418
 H          -3.277148      -14.679661        1.821051
 H          -5.741533      -12.455604        4.578689
 H          -4.057050      -12.780318        5.100031
 H          -4.859022      -14.587927        3.752235
 H          -5.503431      -13.556069        2.507692
