20
 generated by VMD
 C         -59.876251     -156.983932      -56.669712
 N         -60.935722     -156.580658      -56.593124
 H         -59.548431     -157.435333      -53.429623
 H         -58.857193     -157.324265      -56.535545
 C         -59.006958     -157.893066      -52.655041
 C         -57.817410     -157.178146      -52.225128
 C         -59.027710     -159.345474      -52.469810
 C         -57.317120     -157.537766      -50.772758
 C         -58.508175     -159.732224      -51.127190
 C         -57.178909     -159.107727      -50.775475
 H         -57.924084     -156.061249      -52.109154
 H         -56.986927     -157.338867      -52.993156
 H         -60.033398     -159.748535      -52.569866
 H         -58.515060     -159.738068      -53.342018
 H         -57.941822     -157.010376      -50.004101
 H         -56.336960     -157.108017      -50.599625
 H         -58.168056     -160.811539      -51.255100
 H         -59.214455     -159.795807      -50.187328
 H         -56.752190     -159.527451      -49.877449
 H         -56.547661     -159.350021      -51.673733
