20
 generated by VMD
 C         -65.079399     -175.761642      -55.810463
 N         -64.710304     -176.832108      -56.033878
 H         -64.031509     -174.021515      -58.305149
 H         -65.329956     -174.716339      -55.602512
 C         -64.534889     -173.476990      -59.036133
 C         -65.443970     -172.433472      -58.582985
 C         -63.861088     -173.324066      -60.400078
 C         -64.596046     -171.210083      -58.392548
 C         -63.148243     -171.975861      -60.572250
 C         -63.874264     -170.878479      -59.809963
 H         -66.039856     -172.723999      -57.618530
 H         -66.200844     -172.179886      -59.274700
 H         -63.236294     -174.137985      -60.723019
 H         -64.720436     -173.397400      -61.161385
 H         -63.833317     -171.445984      -57.642361
 H         -65.201195     -170.331589      -58.081959
 H         -62.846603     -171.591705      -61.535412
 H         -62.187695     -172.136108      -60.068863
 H         -63.235008     -170.002228      -59.593300
 H         -64.705872     -170.505020      -60.469727
