20
 generated by VMD
 C         -70.541801     -197.618362      -64.701332
 N         -69.852737     -197.863693      -65.585617
 H         -73.026512     -196.853180      -66.227188
 H         -71.016937     -197.424683      -63.733791
 C         -73.341515     -195.882675      -66.659729
 C         -73.093788     -194.464844      -66.307854
 C         -74.404472     -196.058914      -67.792534
 C         -72.896629     -193.408813      -67.531563
 C         -74.796707     -194.737503      -68.592735
 C         -73.464966     -194.020264      -68.826080
 H         -72.242363     -194.406479      -65.656876
 H         -74.126701     -194.048096      -65.945786
 H         -74.071770     -196.811127      -68.408386
 H         -75.264336     -196.334106      -67.239243
 H         -71.832001     -193.290482      -67.697418
 H         -73.317451     -192.430313      -67.322006
 H         -75.620163     -194.245697      -68.063065
 H         -75.200188     -195.031693      -69.554810
 H         -72.820259     -194.719910      -69.409454
 H         -73.710182     -193.177383      -69.381203
