20
 generated by VMD
 C         -59.916908     -152.359634      -51.017288
 N         -60.813744     -153.092850      -51.338428
 H         -56.844513     -152.383301      -48.881390
 H         -59.019630     -151.707108      -50.814232
 C         -55.977375     -152.020157      -49.412891
 C         -54.695057     -152.727066      -49.482540
 C         -56.015663     -150.535400      -49.694656
 C         -54.037487     -152.262009      -50.914555
 C         -55.224167     -149.982254      -50.978233
 C         -53.841251     -150.737900      -51.040985
 H         -54.918713     -153.803436      -49.408482
 H         -53.974579     -152.553116      -48.660450
 H         -57.075138     -150.272705      -49.680389
 H         -55.530106     -150.152847      -48.736473
 H         -54.687809     -152.630020      -51.712940
 H         -53.108952     -152.864883      -51.106640
 H         -54.936779     -148.916092      -50.674881
 H         -55.787746     -150.067947      -51.954079
 H         -53.072033     -150.306152      -51.828564
 H         -53.349026     -150.457321      -50.119251
