20
 generated by VMD
 C         -60.815041     -153.280121      -52.349712
 N         -60.849609     -153.166763      -51.226597
 H         -57.653641     -153.849030      -50.616173
 H         -60.823936     -153.418106      -53.393661
 C         -56.665859     -153.416077      -50.699070
 C         -55.647415     -153.659988      -49.584438
 C         -56.559799     -152.083939      -51.330544
 C         -54.105030     -153.187347      -49.816025
 C         -55.052391     -151.750885      -51.646477
 C         -54.072876     -151.863022      -50.502796
 H         -55.698460     -154.715164      -49.420677
 H         -55.901955     -153.088516      -48.673714
 H         -56.980778     -152.154480      -52.360966
 H         -57.135342     -151.284058      -50.841984
 H         -53.649574     -153.859512      -50.502640
 H         -53.640373     -153.153427      -48.791084
 H         -55.066582     -150.633820      -52.053143
 H         -54.635239     -152.259583      -52.486141
 H         -53.005241     -151.712845      -50.822300
 H         -54.331577     -151.245956      -49.730915
