20
 generated by VMD
 C         -10.432062      -33.169643       -8.901102
 N         -11.277923      -33.716846       -9.383640
 H         -12.895804      -33.892967       -6.286674
 H         -13.123911      -34.474495       -4.633961
 C         -13.001972      -34.785339       -5.652290
 C         -11.648770      -35.483040       -5.934073
 C         -14.159895      -35.711090       -6.127715
 C         -11.623156      -36.943703       -5.536631
 C         -14.037570      -37.173897       -5.718570
 C         -12.730573      -37.767918       -6.191856
 H         -10.951560      -34.935455       -5.352560
 H         -11.374025      -35.327599       -6.963882
 H         -15.097640      -35.284870       -5.775011
 H         -14.160838      -35.733894       -7.250563
 H         -11.645649      -37.072033       -4.478726
 H         -10.653820      -37.380081       -5.834445
 H         -14.833659      -37.674477       -6.320251
 H         -14.252621      -37.315792       -4.704429
 H         -12.607990      -38.836567       -5.967974
 H         -12.711681      -37.588432       -7.304188
