20
 generated by VMD
 C         -31.517797      -77.594803      -26.295717
 N         -31.730513      -78.028168      -27.403728
 H         -29.263710      -79.106308      -24.053816
 H         -31.000828      -77.439194      -25.414442
 C         -28.973278      -79.643471      -23.170952
 C         -27.472790      -79.902756      -23.012918
 C         -29.840683      -80.823235      -22.686930
 C         -27.047516      -80.724617      -21.790348
 C         -29.270832      -81.592712      -21.478035
 C         -27.906050      -82.001450      -21.762926
 H         -27.020844      -78.866539      -22.964027
 H         -26.907120      -80.344742      -23.854036
 H         -30.933554      -80.478523      -22.484930
 H         -29.941061      -81.538773      -23.480268
 H         -27.156940      -80.224030      -20.862722
 H         -25.989899      -80.944473      -21.918379
 H         -29.984095      -82.437393      -21.308756
 H         -29.334871      -80.891174      -20.633556
 H         -27.396994      -82.632172      -21.019104
 H         -27.915216      -82.482010      -22.823511
