20
 generated by VMD
 C         -79.571976     -205.369232      -71.714081
 N         -79.794327     -206.502289      -71.581711
 H         -76.939194     -204.113174      -71.936531
 H         -79.209587     -204.387726      -71.925453
 C         -76.331108     -204.142105      -71.051933
 C         -75.458603     -203.009766      -70.731102
 C         -76.382896     -205.289688      -70.089310
 C         -74.124390     -203.349884      -70.184196
 C         -75.224594     -205.440765      -69.154625
 C         -73.958496     -204.844162      -69.740982
 H         -75.931427     -202.338898      -69.956001
 H         -75.294586     -202.360168      -71.557762
 H         -77.253059     -205.169205      -69.348938
 H         -76.566681     -206.208862      -70.660713
 H         -74.087097     -202.784805      -69.185089
 H         -73.181259     -203.079147      -70.786247
 H         -74.995552     -206.506943      -68.985138
 H         -75.522629     -204.994034      -68.234741
 H         -73.174644     -204.924225      -68.909187
 H         -73.600716     -205.456467      -70.551552
