20
 generated by VMD
 C         -60.257698     -156.100143      -56.095985
 N         -60.658360     -155.118393      -55.642742
 H         -59.897095     -158.076126      -52.668808
 H         -59.901775     -157.006012      -56.566841
 C         -58.958046     -157.789124      -52.069721
 C         -58.268417     -156.429306      -52.242153
 C         -58.129513     -158.929138      -51.580200
 C         -57.262436     -156.152664      -51.111027
 C         -56.976227     -158.701248      -50.594990
 C         -56.249187     -157.453659      -50.956207
 H         -59.110062     -155.712738      -52.428654
 H         -57.707481     -156.415207      -53.286697
 H         -58.711029     -159.731506      -51.282463
 H         -57.604431     -159.375015      -52.438816
 H         -57.794170     -156.019638      -50.101254
 H         -56.657864     -155.218048      -51.320374
 H         -56.320080     -159.554489      -50.728527
 H         -57.344009     -158.630737      -49.564201
 H         -55.563145     -157.202484      -50.172165
 H         -55.678658     -157.652252      -51.884785
