20
 generated by VMD
 C         -67.990585     -185.879425      -66.996307
 N         -68.392929     -185.006546      -67.694458
 H         -68.857178     -188.351028      -64.719643
 H         -67.577202     -186.654709      -66.435806
 C         -69.394272     -187.900726      -63.851681
 C         -69.009750     -186.572357      -63.286453
 C         -70.644066     -188.531906      -63.416710
 C         -69.424828     -186.288849      -61.862038
 C         -70.880264     -188.313736      -61.864475
 C         -70.881615     -186.815704      -61.572685
 H         -69.527847     -185.861359      -63.830658
 H         -67.926193     -186.524979      -63.359676
 H         -71.527130     -188.267548      -64.101288
 H         -70.396614     -189.573822      -63.479774
 H         -69.330437     -185.178604      -61.713249
 H         -68.663193     -186.722092      -61.189857
 H         -70.126228     -188.771622      -61.266472
 H         -71.729980     -188.870956      -61.487675
 H         -71.473480     -186.053223      -62.186161
 H         -71.321915     -186.643539      -60.496632
