20
 generated by VMD
 C         -40.080757     -100.716240      -31.812353
 N         -40.939011     -100.359520      -31.077040
 H         -37.787121     -103.306854      -31.793949
 H         -39.282261     -100.890045      -32.491138
 C         -36.849091     -102.842155      -31.776066
 C         -35.932152     -102.295212      -32.789425
 C         -36.764503     -102.339622      -30.345861
 C         -35.478268     -100.883598      -32.533051
 C         -36.675903     -100.844292      -30.321997
 C         -35.417343     -100.545341      -31.050856
 H         -36.360325     -102.355942      -33.798615
 H         -35.044682     -102.864960      -32.772251
 H         -37.609379     -102.693741      -29.808561
 H         -35.912445     -102.749062      -29.749292
 H         -36.120350     -100.317757      -33.136131
 H         -34.513405     -100.736000      -32.945660
 H         -36.646500     -100.462311      -29.218401
 H         -37.533104     -100.364227      -30.848810
 H         -35.296787      -99.458656      -31.071980
 H         -34.633495     -101.003563      -30.492979
