20
 generated by VMD
 C          -9.636852      -24.937353        0.600666
 N         -10.620213      -25.396852        0.353023
 H          -6.372074      -23.779387       -0.706721
 H          -7.961244      -23.344555       -1.250267
 C          -6.984727      -23.614061       -1.615581
 C          -7.171653      -24.932320       -2.394523
 C          -6.530149      -22.490871       -2.564957
 C          -8.112463      -24.692514       -3.600852
 C          -7.414597      -22.225924       -3.733490
 C          -7.647844      -23.504972       -4.481785
 H          -7.538539      -25.687578       -1.703390
 H          -6.168778      -25.258018       -2.845481
 H          -6.397848      -21.536901       -2.080086
 H          -5.585834      -22.832504       -3.063157
 H          -9.034561      -24.345974       -3.215785
 H          -8.209379      -25.583027       -4.217804
 H          -6.948776      -21.474298       -4.382604
 H          -8.332822      -21.794043       -3.334500
 H          -8.328441      -23.354786       -5.310589
 H          -6.647974      -23.824142       -4.868052
