20
 generated by VMD
 C         -74.925476     -201.670853      -66.643570
 N         -74.978416     -201.593048      -65.462524
 H         -76.260101     -199.389511      -68.875259
 H         -75.163055     -201.772903      -67.658005
 C         -75.320938     -198.919510      -69.034935
 C         -74.891678     -197.641663      -68.418060
 C         -74.306320     -199.553726      -69.901222
 C         -73.429665     -197.641418      -67.993729
 C         -73.268112     -198.537430      -70.317093
 C         -72.617104     -197.612396      -69.211304
 H         -75.398026     -197.544678      -67.376099
 H         -75.272919     -196.716385      -69.009697
 H         -73.796661     -200.372955      -69.348602
 H         -74.810783     -199.840378      -70.799164
 H         -73.182724     -198.593048      -67.402298
 H         -73.273582     -196.742966      -67.414871
 H         -73.842445     -197.850357      -71.024788
 H         -72.461235     -199.136612      -70.866768
 H         -71.489159     -197.987991      -69.166725
 H         -72.457947     -196.617813      -69.405075
