20
 generated by VMD
 C         -31.060329      -75.376053      -21.433702
 N         -32.144142      -75.638519      -21.660723
 H         -28.188120      -75.891113      -20.391653
 H         -30.253336      -75.172951      -20.848473
 C         -27.315847      -75.643539      -20.931089
 C         -26.676844      -76.759323      -21.745878
 C         -26.512939      -74.462677      -20.645956
 C         -25.747068      -76.157623      -22.858065
 C         -25.568560      -74.033203      -21.757830
 C         -24.748648      -75.188278      -22.285770
 H         -27.477842      -77.229729      -22.240601
 H         -26.131586      -77.287903      -20.985371
 H         -27.187059      -73.634087      -20.224421
 H         -26.022026      -74.743683      -19.712214
 H         -26.312321      -75.770432      -23.706028
 H         -25.092596      -76.916939      -23.269836
 H         -24.925900      -73.344490      -21.247799
 H         -26.116463      -73.640610      -22.595156
 H         -24.242041      -74.711815      -23.110716
 H         -24.073978      -75.668694      -21.571669
