20
 generated by VMD
 C         -44.903255     -122.549538      -35.507126
 N         -45.165997     -123.519562      -34.946297
 H         -45.219971     -122.886887      -39.168709
 H         -44.658176     -121.609779      -35.935066
 C         -44.964256     -121.802994      -39.431129
 C         -43.457909     -121.383835      -39.618233
 C         -46.016273     -120.785988      -39.562531
 C         -43.314922     -120.437294      -40.797745
 C         -45.754616     -119.817085      -40.716045
 C         -44.305538     -119.257065      -40.712299
 H         -42.782196     -122.235886      -39.815762
 H         -43.362438     -120.944016      -38.650074
 H         -46.977371     -121.278587      -39.662098
 H         -46.121647     -120.142723      -38.663483
 H         -43.508671     -120.914436      -41.739880
 H         -42.296658     -119.927231      -40.887516
 H         -46.432907     -118.943489      -40.806313
 H         -45.881645     -120.281425      -41.817200
 H         -44.148270     -118.743721      -41.634121
 H         -44.058727     -118.571083      -39.946026
