20
 generated by VMD
 C         -37.074444      -98.050613      -26.102266
 N         -35.986244      -98.425377      -26.279242
 H         -36.389027      -95.328224      -28.667107
 H         -38.108086      -97.664871      -25.745665
 C         -35.517517      -95.401382      -29.274343
 C         -35.737770      -96.328514      -30.441740
 C         -34.313854      -94.646225      -29.103840
 C         -35.250835      -95.624252      -31.691059
 C         -33.856098      -93.957787      -30.469994
 C         -33.792034      -94.900230      -31.654140
 H         -36.815491      -96.659058      -30.577116
 H         -35.079258      -97.201904      -30.201099
 H         -34.359726      -93.887344      -28.341291
 H         -33.518944      -95.290474      -28.716351
 H         -35.961361      -94.850319      -31.924765
 H         -35.202663      -96.225075      -32.601044
 H         -32.915245      -93.481720      -30.256392
 H         -34.680950      -93.154854      -30.657785
 H         -33.478642      -94.426872      -32.531975
 H         -32.856384      -95.690979      -31.403526
