20
 generated by VMD
 C         -73.955154     -200.872147      -65.430786
 N         -72.833260     -201.117081      -65.334389
 H         -73.900536     -198.002106      -66.450058
 H         -75.021774     -200.795319      -65.675659
 C         -73.999443     -197.513535      -67.412842
 C         -74.473412     -196.157211      -67.559700
 C         -73.384613     -198.136627      -68.637070
 C         -73.536903     -195.392593      -68.486603
 C         -73.768181     -197.364929      -70.012207
 C         -73.574760     -195.856689      -69.924248
 H         -74.481499     -195.713699      -66.633881
 H         -75.493065     -195.921768      -68.033981
 H         -72.300552     -198.235657      -68.533577
 H         -73.949158     -199.059006      -68.727020
 H         -72.519737     -195.582367      -68.222679
 H         -73.693993     -194.293640      -68.507019
 H         -74.750252     -197.734543      -70.443550
 H         -73.027489     -197.804260      -70.759827
 H         -72.567039     -195.633575      -70.383621
 H         -74.338783     -195.324890      -70.341682
