20
 generated by VMD
 C         -11.790324      -41.533375       -6.264719
 N         -10.880887      -42.009827       -6.661711
 H         -14.596542      -41.636635       -8.375909
 H         -15.356382      -40.814606       -9.762012
 C         -15.301116      -41.813744       -9.191469
 C         -16.681324      -42.330254       -8.744843
 C         -14.659311      -42.842155      -10.197116
 C         -17.559954      -42.483089       -9.997962
 C         -15.568038      -43.208149      -11.351855
 C         -16.995144      -43.530861      -10.974835
 H         -17.153309      -41.546345       -8.072798
 H         -16.649050      -43.311138       -8.251701
 H         -13.671672      -42.462147      -10.577171
 H         -14.404794      -43.751957       -9.656961
 H         -17.616194      -41.543278      -10.571379
 H         -18.604687      -42.607407       -9.684590
 H         -15.155367      -44.006844      -11.995533
 H         -15.584615      -42.332378      -11.976694
 H         -17.598204      -43.586853      -11.892170
 H         -17.042187      -44.484333      -10.505909
