20
 generated by VMD
 C         -20.581877      -56.491318      -16.847782
 N         -21.369881      -55.840675      -17.376637
 H         -22.494053      -58.339973      -16.360518
 H         -20.013199      -56.951199      -16.186588
 C         -22.086740      -59.245838      -15.902591
 C         -22.266895      -59.223030      -14.428804
 C         -21.677988      -60.587002      -16.548214
 C         -21.024765      -59.703560      -13.741280
 C         -20.725180      -61.379097      -15.626546
 C         -20.859526      -61.175739      -14.169810
 H         -23.158302      -59.824333      -14.149048
 H         -22.382902      -58.172688      -14.172774
 H         -22.557507      -61.171028      -16.781666
 H         -21.177887      -60.383526      -17.506264
 H         -21.337811      -59.742332      -12.689679
 H         -20.141556      -59.039005      -13.892539
 H         -19.701521      -61.088459      -15.956763
 H         -20.975719      -62.417942      -15.830895
 H         -21.548635      -61.932995      -13.780134
 H         -19.905241      -61.527336      -13.710625
