20
 generated by VMD
 C         -20.557524      -57.287506      -16.880444
 N         -20.676601      -56.434048      -16.131983
 H         -22.482901      -59.753147      -17.783669
 H         -20.782784      -58.141983      -17.597609
 C         -22.077297      -60.146393      -16.834232
 C         -22.700903      -59.566006      -15.651978
 C         -21.703512      -61.653584      -16.814341
 C         -22.050783      -59.997665      -14.241801
 C         -20.836536      -61.925041      -15.579642
 C         -21.689701      -61.491421      -14.290570
 H         -23.774248      -59.924377      -15.750336
 H         -22.662741      -58.430241      -15.750339
 H         -22.580349      -62.306725      -16.819813
 H         -21.021534      -61.869884      -17.601814
 H         -22.722538      -59.731709      -13.460386
 H         -21.189779      -59.367603      -13.956797
 H         -19.803270      -61.510315      -15.479934
 H         -20.854242      -63.001724      -15.428432
 H         -22.593870      -62.122505      -14.265821
 H         -21.128601      -61.761467      -13.401331
