20
 generated by VMD
 C         -58.839195     -161.039963      -56.704792
 N         -58.554779     -160.103027      -57.286526
 H         -58.931393     -163.901108      -55.017418
 H         -59.125553     -161.894653      -56.106731
 C         -59.719402     -163.476074      -54.437199
 C         -59.604321     -163.328125      -52.942940
 C         -61.110252     -163.423676      -55.039650
 C         -60.360657     -162.056992      -52.431530
 C         -61.978207     -162.408737      -54.350101
 C         -61.844456     -162.287415      -52.817799
 H         -58.543716     -163.249695      -52.663555
 H         -59.833878     -164.159821      -52.287056
 H         -61.048874     -163.163284      -56.178768
 H         -61.529202     -164.415222      -55.106342
 H         -60.001602     -161.192368      -52.856079
 H         -60.275814     -162.082336      -51.319557
 H         -63.028694     -162.606094      -54.629128
 H         -61.515118     -161.454346      -54.650665
 H         -62.508419     -161.493042      -52.476730
 H         -62.330528     -163.161819      -52.367630
