20
 generated by VMD
 C         -23.124554      -53.013371      -12.638655
 N         -22.823944      -52.581524      -13.693090
 H         -20.571318      -54.510628      -13.961579
 H         -23.369228      -53.598209      -11.577040
 C         -19.519358      -54.363335      -13.758073
 C         -18.967194      -53.045441      -14.224396
 C         -18.496847      -55.486202      -13.764680
 C         -17.687208      -52.742840      -13.310670
 C         -17.118229      -55.125149      -13.112175
 C         -16.584566      -53.736729      -13.437082
 H         -19.738781      -52.258884      -14.261563
 H         -18.653225      -53.153389      -15.260952
 H         -18.862745      -56.355614      -13.239477
 H         -18.381344      -55.727802      -14.887867
 H         -17.975780      -52.724529      -12.231129
 H         -17.277887      -51.751591      -13.527553
 H         -16.392136      -55.844315      -13.416264
 H         -17.305841      -55.288273      -11.998804
 H         -15.754050      -53.432922      -12.857253
 H         -16.233942      -53.827953      -14.442312
