20
 generated by VMD
 C         -40.343929     -100.245834      -30.153866
 N         -41.444397     -100.537140      -30.203041
 H         -37.360397     -101.152527      -30.459332
 H         -39.370975      -99.732986      -30.002161
 C         -36.488857     -100.688499      -30.834799
 C         -36.267597     -100.325813      -32.317699
 C         -35.302376     -100.636223      -29.872751
 C         -35.437157      -99.030380      -32.464310
 C         -34.551159      -99.345985      -30.073103
 C         -34.221420      -99.017952      -31.542337
 H         -37.225174     -100.128601      -32.790977
 H         -35.779812     -101.189201      -32.838810
 H         -35.690166     -100.710022      -28.877171
 H         -34.567284     -101.489265      -30.081461
 H         -35.993832      -98.056885      -32.203167
 H         -35.120686      -98.844727      -33.498466
 H         -33.579746      -99.324471      -29.587883
 H         -35.227715      -98.458916      -29.793846
 H         -33.799210      -98.006264      -31.335239
 H         -33.543362      -99.765533      -31.921879
