20
 generated by VMD
 C         -78.726486     -208.236938      -76.841408
 N         -78.955864     -208.286377      -75.670349
 H         -78.896446     -209.753403      -73.508446
 H         -78.545181     -208.254898      -77.863152
 C         -78.594025     -210.039658      -72.521797
 C         -77.326088     -209.476807      -72.119591
 C         -79.076279     -211.339340      -71.891762
 C         -77.077347     -209.607773      -70.613770
 C         -78.966789     -211.111252      -70.363266
 C         -77.558754     -210.934967      -69.903236
 H         -77.327911     -208.436615      -72.396324
 H         -76.622261     -209.993698      -72.673080
 H         -80.095177     -211.500122      -72.069740
 H         -78.503769     -212.242676      -72.164566
 H         -77.516075     -208.738205      -70.128769
 H         -75.972939     -209.610748      -70.495529
 H         -79.388092     -212.018463      -69.965553
 H         -79.685921     -210.288788      -69.925056
 H         -77.418388     -210.877274      -68.853951
 H         -76.789192     -211.672455      -70.166725
