20
 generated by VMD
 C         -57.903381     -150.608124      -48.650360
 N         -58.049377     -151.807007      -48.609879
 H         -55.370686     -149.491241      -47.604156
 H         -57.722790     -149.536041      -48.761284
 C         -54.938522     -149.166626      -48.542049
 C         -54.088177     -150.027451      -49.367989
 C         -54.936905     -147.743042      -48.848000
 C         -54.228031     -149.670807      -50.887226
 C         -54.981487     -147.380692      -50.298203
 C         -54.028683     -148.216644      -51.263542
 H         -54.451027     -151.079727      -49.156830
 H         -52.975216     -150.116837      -49.087624
 H         -55.654404     -147.162064      -48.337139
 H         -54.012379     -147.294083      -48.389450
 H         -55.146336     -150.126068      -51.290184
 H         -53.398712     -150.266571      -51.386898
 H         -54.811932     -146.361847      -50.427883
 H         -56.043877     -147.566391      -50.738358
 H         -54.315193     -148.093475      -52.360493
 H         -52.933617     -147.957489      -51.125614
