20
 generated by VMD
 C         -69.854279     -197.441666      -66.060593
 N         -69.339546     -196.450912      -65.698402
 H         -71.757187     -194.123474      -64.978401
 H         -70.596291     -198.237000      -66.398010
 C         -72.640030     -193.822021      -65.549927
 C         -72.841873     -192.405014      -66.053482
 C         -73.075554     -194.989655      -66.358459
 C         -73.723457     -192.195633      -67.341125
 C         -74.118011     -194.684875      -67.452347
 C         -73.612350     -193.455063      -68.224792
 H         -71.878639     -192.105438      -66.311203
 H         -73.266357     -191.910660      -65.136147
 H         -72.227287     -195.429581      -66.950493
 H         -73.328339     -195.961655      -65.840050
 H         -73.372864     -191.379791      -67.941391
 H         -74.751343     -192.021759      -67.053230
 H         -75.105499     -194.473846      -66.971527
 H         -74.280464     -195.510788      -68.119019
 H         -72.525757     -193.613770      -68.587456
 H         -74.251869     -193.259155      -69.089104
