20
 generated by VMD
 C         -28.358784      -82.408165      -26.595041
 N         -27.522375      -82.987801      -27.102987
 H         -31.199072      -83.963280      -26.465227
 H         -29.072685      -81.853256      -25.952929
 C         -31.456207      -84.701347      -25.807062
 C         -30.934931      -84.593605      -24.380604
 C         -32.089359      -86.035309      -26.181883
 C         -32.021622      -85.093697      -23.371597
 C         -33.021355      -86.645836      -25.063332
 C         -32.508965      -86.502548      -23.629135
 H         -30.767168      -83.541786      -24.267962
 H         -29.964632      -85.032776      -24.182968
 H         -32.715885      -85.682449      -26.964396
 H         -31.345116      -86.825951      -26.493017
 H         -32.904095      -84.401382      -23.404745
 H         -31.669971      -84.952782      -22.412390
 H         -33.251289      -87.658669      -25.404398
 H         -34.024948      -86.053307      -25.089684
 H         -33.246223      -86.982315      -22.942303
 H         -31.666687      -87.218208      -23.824217
