20
 generated by VMD
 C         -50.411366     -131.964493      -47.008846
 N         -49.947319     -132.392365      -47.975224
 H         -48.461479     -131.646362      -43.736740
 H         -50.789669     -131.298508      -46.223858
 C         -48.712055     -132.423859      -43.044273
 C         -49.425480     -133.619812      -43.614326
 C         -48.646152     -132.230530      -41.593945
 C         -49.254894     -134.878159      -42.872726
 C         -48.466232     -133.599442      -40.810150
 C         -49.434212     -134.619598      -41.379681
 H         -49.168228     -133.851273      -44.697117
 H         -50.535908     -133.378052      -43.587116
 H         -47.838787     -131.497757      -41.278576
 H         -49.525925     -131.724945      -41.273582
 H         -48.216831     -135.172791      -43.040699
 H         -49.946190     -135.678024      -43.149132
 H         -48.592693     -133.312164      -39.795006
 H         -47.396946     -133.895294      -41.097507
 H         -49.522850     -135.659103      -40.822651
 H         -50.487526     -134.256088      -41.215500
