20
 generated by VMD
 C         -50.282578     -145.205414      -45.093250
 N         -49.986679     -144.833298      -44.053799
 H         -53.062099     -143.450668      -45.938591
 H         -50.671749     -145.484650      -46.026180
 C         -53.472244     -143.002151      -46.852890
 C         -52.546589     -142.842987      -48.059834
 C         -54.633831     -142.183853      -46.915207
 C         -53.337242     -143.135300      -49.292011
 C         -55.447887     -142.220032      -48.145546
 C         -54.548626     -142.173203      -49.443520
 H         -51.807831     -143.618652      -48.073254
 H         -52.198238     -141.795441      -48.066689
 H         -55.254116     -142.342285      -46.066071
 H         -54.296207     -141.243439      -46.619884
 H         -53.625149     -144.173904      -49.345837
 H         -52.728821     -142.984573      -50.173416
 H         -56.120186     -141.409561      -48.208561
 H         -55.957958     -143.161865      -48.194538
 H         -54.995975     -142.643738      -50.306557
 H         -54.180870     -141.194290      -49.565559
