20
 generated by VMD
 C         -20.089098      -56.478134      -16.910091
 N         -21.015894      -56.425179      -16.177170
 H         -22.155893      -59.721054      -17.553343
 H         -19.038561      -56.466084      -17.325909
 C         -22.270456      -60.221706      -16.660227
 C         -22.769262      -59.608089      -15.385292
 C         -21.939157      -61.648701      -16.636293
 C         -21.675873      -59.826130      -14.420557
 C         -20.851242      -61.842201      -15.559174
 C         -21.365473      -61.261829      -14.230654
 H         -23.666819      -60.112541      -15.105317
 H         -22.974949      -58.602375      -15.482016
 H         -22.860373      -62.291412      -16.587736
 H         -21.439178      -61.994114      -17.564671
 H         -21.947344      -59.409584      -13.394661
 H         -20.789145      -59.282551      -14.828811
 H         -19.885750      -61.374107      -15.686433
 H         -20.779339      -62.927719      -15.384335
 H         -22.244074      -61.888008      -13.897135
 H         -20.641026      -61.452702      -13.438252
