20
 generated by VMD
 C         -63.346088     -174.459732      -56.673641
 N         -62.523952     -175.164032      -56.208858
 H         -66.503731     -173.319214      -58.261429
 H         -64.114929     -173.819946      -57.077591
 C         -65.648552     -172.578964      -58.520760
 C         -65.790375     -171.065704      -58.345112
 C         -64.715050     -172.951874      -59.698174
 C         -64.324760     -170.431778      -58.239594
 C         -63.306301     -172.270630      -59.506817
 C         -63.281876     -170.866806      -59.171253
 H         -66.342270     -170.616714      -57.569416
 H         -66.223892     -170.606140      -59.311172
 H         -64.525787     -174.081573      -59.699837
 H         -65.165276     -172.638123      -60.687946
 H         -64.062958     -170.673187      -57.124565
 H         -64.484299     -169.293976      -58.256577
 H         -62.770702     -172.318542      -60.439079
 H         -62.787060     -172.895462      -58.732239
 H         -62.335659     -170.810043      -58.611359
 H         -63.163826     -170.251617      -60.127106
