20
 generated by VMD
 C         -39.186813      -98.959076      -28.008762
 N         -38.618011      -99.925873      -27.664026
 H         -37.349113      -98.525291      -30.513645
 H         -39.756176      -98.067741      -28.128319
 C         -36.338619      -98.060242      -30.728134
 C         -35.771912      -98.171577      -32.067177
 C         -35.592522      -97.414391      -29.596653
 C         -34.353252      -97.568520      -32.349041
 C         -34.452885      -96.605347      -29.941860
 C         -33.616913      -97.225403      -31.039141
 H         -36.574810      -98.033447      -32.801327
 H         -35.566551      -99.287941      -32.116947
 H         -36.350273      -96.818581      -29.085682
 H         -35.261395      -98.198036      -28.832396
 H         -34.513794      -96.550049      -32.837559
 H         -33.856915      -98.284096      -33.034748
 H         -33.817219      -96.441818      -29.107470
 H         -34.813873      -95.607140      -30.331718
 H         -32.790035      -96.620789      -31.402088
 H         -33.182281      -98.102020      -30.576075
