20
 generated by VMD
 C         -66.675957     -177.907684      -56.940453
 N         -67.787682     -178.257339      -56.899879
 H         -64.405182     -176.319382      -59.770725
 H         -65.688301     -177.588882      -57.127476
 C         -64.264488     -175.154510      -59.625309
 C         -65.476974     -174.280350      -59.409729
 C         -63.170052     -174.530685      -60.357822
 C         -65.166862     -172.715591      -59.176891
 C         -63.052872     -172.969742      -60.326054
 C         -64.409920     -172.288513      -60.470146
 H         -66.047066     -174.690033      -58.565083
 H         -66.235458     -174.402313      -60.249500
 H         -62.235783     -174.970535      -60.035595
 H         -63.219990     -174.871521      -61.461678
 H         -64.435760     -172.632248      -58.314919
 H         -66.024956     -172.022736      -59.003731
 H         -62.548424     -172.541733      -61.216629
 H         -62.382938     -172.757828      -59.497299
 H         -64.168762     -171.169617      -60.529041
 H         -64.779633     -172.536942      -61.478088
