20
 generated by VMD
 C         -68.148933     -185.275970      -67.774223
 N         -67.610306     -185.404739      -66.762703
 H         -69.948227     -186.721756      -64.824318
 H         -68.610489     -185.248993      -68.786301
 C         -69.767975     -186.549057      -63.773861
 C         -70.426819     -185.411621      -63.151176
 C         -69.539978     -187.827713      -62.900635
 C         -70.210320     -185.270233      -61.593136
 C         -68.898041     -187.415237      -61.599842
 C         -69.852158     -186.574677      -60.852222
 H         -71.551193     -185.541977      -63.322216
 H         -70.168777     -184.445511      -63.624020
 H         -70.527222     -188.383987      -62.922886
 H         -68.756065     -188.410843      -63.430950
 H         -71.165283     -184.890030      -61.119408
 H         -69.455917     -184.539825      -61.454292
 H         -67.887779     -186.874466      -61.792114
 H         -68.507187     -188.336838      -61.098595
 H         -70.898170     -187.225342      -60.521210
 H         -69.456909     -186.220261      -59.848698
