20
 generated by VMD
 C         -50.056404     -130.761932      -45.703102
 N         -50.840031     -129.909454      -45.616535
 H         -47.353653     -132.329391      -44.194447
 H         -49.110500     -131.197433      -45.540016
 C         -48.176754     -132.235855      -43.549442
 C         -48.525444     -133.408646      -42.779682
 C         -48.404613     -130.927902      -42.828346
 C         -47.911884     -133.547058      -41.374535
 C         -47.789394     -130.954605      -41.378441
 C         -48.283989     -132.214310      -40.603966
 H         -48.120831     -134.323547      -43.372925
 H         -49.578800     -133.481308      -42.900833
 H         -48.156853     -129.967560      -43.375191
 H         -49.526070     -130.789673      -42.673325
 H         -46.818100     -133.736847      -41.323730
 H         -48.409443     -134.448746      -40.930965
 H         -48.159958     -129.964050      -41.018730
 H         -46.693996     -130.826050      -41.531685
 H         -47.871689     -132.268723      -39.602077
 H         -49.402145     -132.188797      -40.523247
