20
 generated by VMD
 C         -47.928459     -134.543396      -46.965172
 N         -48.000267     -134.083679      -48.014793
 H         -50.289791     -134.359360      -44.877361
 H         -48.050587     -135.035858      -46.043079
 C         -50.478809     -135.283951      -44.262199
 C         -50.811150     -136.465515      -45.064480
 C         -51.108601     -135.076355      -42.820080
 C         -50.919777     -137.787537      -44.175037
 C         -51.216995     -136.380081      -42.100239
 C         -51.797791     -137.548050      -43.018456
 H         -50.046867     -136.704025      -45.757961
 H         -51.742386     -136.372437      -45.612022
 H         -50.527649     -134.470215      -42.224728
 H         -52.083294     -134.509705      -42.883877
 H         -49.879513     -137.924042      -43.725506
 H         -51.229294     -138.712219      -44.622688
 H         -51.918552     -136.072556      -41.236668
 H         -50.226208     -136.634567      -41.579327
 H         -51.892075     -138.507401      -42.417927
 H         -52.834011     -137.613083      -43.267189
