20
 generated by VMD
 C         -11.051888      -34.025394       -9.293001
 N         -11.344643      -33.528839       -8.367261
 H         -11.453715      -37.643948       -8.037468
 H         -12.214128      -36.848972       -6.576324
 C         -12.282646      -37.728451       -7.271923
 C         -12.286714      -39.062157       -6.538409
 C         -13.671736      -37.523117       -8.027437
 C         -13.465378      -39.141453       -5.584015
 C         -14.747346      -37.514744       -6.962538
 C         -14.863958      -38.860626       -6.228383
 H         -11.334713      -39.224468       -6.015759
 H         -12.412480      -39.832596       -7.268274
 H         -13.632686      -36.566025       -8.672749
 H         -13.812281      -38.407871       -8.636275
 H         -13.289109      -38.345692       -4.828484
 H         -13.480821      -40.093605       -5.105272
 H         -15.802949      -37.278858       -7.384043
 H         -14.564948      -36.782063       -6.198843
 H         -15.686469      -38.884010       -5.463639
 H         -15.117302      -39.635239       -6.968896
