20
 generated by VMD
 C         -15.408355      -47.616936       -6.192374
 N         -15.590405      -46.630405       -5.700289
 H         -16.576832      -47.137722       -9.958712
 H         -15.197622      -46.892536      -11.194518
 C         -16.260777      -46.726135      -10.912080
 C         -16.451399      -45.185692      -10.813439
 C         -17.086679      -47.355892      -12.006488
 C         -16.179108      -44.565266      -12.164099
 C         -16.942003      -46.619610      -13.353411
 C         -17.094719      -45.098434      -13.261535
 H         -15.722979      -44.734890      -10.136786
 H         -17.432430      -44.994564      -10.429542
 H         -16.824665      -48.376251      -12.137116
 H         -18.142132      -47.392036      -11.749595
 H         -15.110751      -44.649433      -12.367654
 H         -16.339289      -43.495010      -12.173055
 H         -17.467834      -47.120621      -14.141887
 H         -15.826999      -46.786934      -13.650411
 H         -16.855074      -44.601936      -14.233060
 H         -18.165657      -44.794941      -13.121213
