20
 generated by VMD
 C         -23.872744      -69.580376      -16.872713
 N         -24.240253      -69.941269      -15.854479
 H         -23.929695      -66.825920      -18.908932
 H         -23.596968      -69.260384      -17.965420
 C         -24.471447      -67.682510      -19.364933
 C         -23.708532      -68.457344      -20.538019
 C         -25.952993      -67.557922      -19.354757
 C         -24.607605      -69.682411      -20.843004
 C         -26.706442      -68.794876      -19.612728
 C         -26.065174      -69.348793      -20.917360
 H         -22.663097      -68.613670      -20.155128
 H         -23.563852      -67.811020      -21.497808
 H         -26.206245      -67.275223      -18.352589
 H         -26.217134      -66.738487      -19.881649
 H         -24.461121      -70.367989      -19.948275
 H         -24.162315      -70.149323      -21.719473
 H         -27.830229      -68.770706      -19.727262
 H         -26.642097      -69.654488      -18.896030
 H         -26.699739      -70.217209      -21.148340
 H         -26.176870      -68.555351      -21.676064
