20
 generated by VMD
 C         -42.047703     -101.705238      -33.471447
 N         -40.971058     -101.751183      -33.873260
 H         -39.077118     -103.529892      -32.708858
 H         -43.006172     -101.308395      -33.242908
 C         -38.013798     -103.735641      -32.235138
 C         -36.798534     -103.554779      -33.114735
 C         -37.835823     -104.181030      -30.798319
 C         -35.726772     -102.774368      -32.373333
 C         -36.612160     -103.468674      -30.153551
 C         -35.374439     -103.408119      -31.041328
 H         -37.030781     -103.044281      -34.006081
 H         -36.560444     -104.605682      -33.316475
 H         -38.764961     -103.877113      -30.349669
 H         -37.687069     -105.271812      -30.863832
 H         -36.036213     -101.764717      -32.030643
 H         -34.789761     -102.629051      -33.049118
 H         -36.462032     -104.073692      -29.200016
 H         -36.744984     -102.460487      -29.871590
 H         -34.526398     -102.824104      -30.529650
 H         -35.052631     -104.424805      -31.095093
