20
 generated by VMD
 C         -49.339458     -141.359375      -45.807667
 N         -48.863911     -141.674957      -44.785557
 H         -51.474705     -138.554733      -46.267670
 H         -49.815002     -141.200943      -46.756992
 C         -52.240414     -139.257034      -46.348507
 C         -52.902340     -139.402573      -47.736347
 C         -52.786049     -139.981812      -45.236519
 C         -53.120380     -140.876709      -47.990513
 C         -53.346375     -141.422836      -45.620258
 C         -54.030952     -141.458252      -46.895470
 H         -52.093452     -138.982895      -48.354038
 H         -53.833553     -138.816528      -47.946671
 H         -51.986820     -140.179733      -44.535347
 H         -53.574368     -139.379578      -44.829311
 H         -52.314606     -141.568161      -48.123947
 H         -53.623371     -140.745148      -48.954666
 H         -54.124512     -141.810013      -44.950073
 H         -52.473450     -142.045059      -45.732006
 H         -54.321442     -142.503265      -47.320995
 H         -55.003353     -140.829544      -46.702976
