20
 generated by VMD
 C         -30.393116      -74.593735      -21.022156
 N         -31.006634      -75.475647      -20.622162
 H         -27.517000      -74.875389      -19.543066
 H         -29.911478      -73.911507      -21.695957
 C         -26.771643      -74.646545      -20.319918
 C         -26.528067      -75.736984      -21.256535
 C         -26.010885      -73.390320      -20.387281
 C         -25.995617      -75.370720      -22.579126
 C         -25.540426      -73.057076      -21.894215
 C         -24.901030      -74.312119      -22.552078
 H         -27.523808      -76.284058      -21.376795
 H         -25.672300      -76.414154      -20.829481
 H         -26.733660      -72.675392      -19.878107
 H         -25.095589      -73.517952      -19.786871
 H         -26.850582      -75.010292      -23.160940
 H         -25.635941      -76.247398      -23.150459
 H         -24.968357      -72.160301      -21.781317
 H         -26.522018      -72.873207      -22.383017
 H         -24.716293      -73.916092      -23.580999
 H         -23.920563      -74.709435      -22.314470
