20
 generated by VMD
 C          -1.526716      -11.103583        1.559225
 N          -1.047816      -12.003942        1.035709
 H          -3.766438      -13.154323        0.107163
 H          -5.461579      -12.909371        0.946094
 C          -4.602915      -13.597471        0.760293
 C          -4.067076      -13.839254        2.263413
 C          -5.101178      -14.858522        0.135706
 C          -5.138692      -14.537014        3.120240
 C          -6.140297      -15.514441        1.030644
 C          -5.627102      -15.821355        2.431482
 H          -3.671678      -12.901627        2.640047
 H          -3.149228      -14.400759        2.205911
 H          -5.500045      -14.713133       -0.930598
 H          -4.284471      -15.640371        0.132541
 H          -5.950526      -13.869843        3.297803
 H          -4.657299      -14.759210        4.063354
 H          -6.433800      -16.430265        0.528549
 H          -7.055817      -14.902045        1.016641
 H          -6.539685      -16.128284        2.970671
 H          -4.891929      -16.678244        2.455953
