20
 generated by VMD
 C         -22.357082      -68.091232      -16.532230
 N         -21.660700      -68.142532      -15.584131
 H         -24.197519      -65.454735      -18.390509
 H         -23.062727      -68.094154      -17.263729
 C         -24.642796      -66.425545      -18.772346
 C         -24.020977      -67.113274      -20.001707
 C         -26.123232      -66.518890      -18.916243
 C         -24.478344      -68.491623      -20.428818
 C         -26.605839      -67.957336      -19.024183
 C         -25.941469      -68.531204      -20.367914
 H         -22.844234      -67.137451      -19.910721
 H         -24.184610      -66.320427      -20.831144
 H         -26.712078      -65.963356      -18.197004
 H         -26.402245      -65.993835      -19.744492
 H         -24.052279      -69.170952      -19.662741
 H         -24.099728      -68.687660      -21.384890
 H         -27.754473      -68.039352      -19.070915
 H         -26.155123      -68.579994      -18.247095
 H         -26.269175      -69.554092      -20.618223
 H         -26.341019      -67.946976      -21.187857
