20
 generated by VMD
 C          -5.962863      -21.021381        1.620833
 N          -5.804183      -21.786514        2.422290
 H          -5.060297      -18.500029       -1.348692
 H          -5.418877      -19.901569       -0.376745
 C          -5.756989      -19.324667       -1.226628
 C          -5.504676      -20.297165       -2.418638
 C          -7.155642      -18.753601       -1.170939
 C          -6.570822      -21.352516       -2.297723
 C          -8.223406      -19.831051       -1.186802
 C          -7.984006      -20.736649       -2.437713
 H          -4.473143      -20.726334       -2.315658
 H          -5.616940      -19.861330       -3.432945
 H          -7.207118      -18.011621       -0.379152
 H          -7.245475      -18.121826       -2.006691
 H          -6.556583      -21.864397       -1.309911
 H          -6.316628      -22.169018       -3.042311
 H          -9.276493      -19.441074       -1.168980
 H          -8.175918      -20.444744       -0.282130
 H          -8.635665      -21.615093       -2.362205
 H          -8.194078      -20.166407       -3.368176
