20
 generated by VMD
 C         -63.060944     -174.880142      -54.818325
 N         -62.952744     -174.282623      -55.829033
 H         -64.096176     -173.264542      -57.770538
 H         -63.310070     -175.339233      -53.854851
 C         -64.212479     -172.366302      -58.352234
 C         -64.433716     -171.116730      -57.585590
 C         -64.365829     -172.269028      -59.813259
 C         -63.803452     -169.912323      -58.254929
 C         -63.967522     -170.954727      -60.442368
 C         -64.428200     -169.684113      -59.657646
 H         -64.033997     -171.271591      -56.643353
 H         -65.614456     -171.050812      -57.521759
 H         -63.855862     -173.084763      -60.280029
 H         -65.419434     -172.472809      -59.974434
 H         -62.767956     -170.059586      -58.393742
 H         -64.106598     -169.077118      -57.658585
 H         -64.267868     -170.939880      -61.528271
 H         -62.854023     -171.003128      -60.492607
 H         -64.009941     -168.792648      -60.069370
 H         -65.525764     -169.585495      -59.507008
