20
 generated by VMD
 C         -49.969540     -131.457336      -46.638382
 N         -50.235462     -131.779297      -47.730923
 H         -48.234985     -131.784439      -43.798733
 H         -49.507751     -131.552475      -45.666553
 C         -49.032372     -132.235428      -43.163372
 C         -49.704857     -133.571518      -43.298336
 C         -48.729172     -131.708786      -41.779678
 C         -48.877308     -134.631271      -42.538155
 C         -47.962128     -132.854950      -40.938629
 C         -48.702229     -134.157974      -41.060570
 H         -49.781887     -133.919113      -44.361160
 H         -50.711014     -133.763840      -42.899040
 H         -48.029484     -130.867889      -41.825954
 H         -49.673119     -131.503036      -41.170010
 H         -47.903095     -134.871719      -42.928169
 H         -49.425495     -135.558197      -42.417130
 H         -47.832092     -132.497955      -39.831478
 H         -47.008186     -132.839279      -41.485893
 H         -48.279247     -134.880890      -40.423283
 H         -49.728794     -134.011169      -40.603664
