20
 generated by VMD
 C         -66.311066     -189.652328      -66.712425
 N         -66.280365     -189.227509      -67.763405
 H         -69.748634     -190.350037      -64.890060
 H         -66.103355     -190.035538      -65.684334
 C         -70.693642     -189.888489      -64.605255
 C         -71.906219     -190.655914      -64.104202
 C         -70.500664     -188.672913      -63.755352
 C         -73.243866     -189.964706      -63.776676
 C         -71.722130     -187.737549      -63.830864
 C         -72.904404     -188.490662      -63.118732
 H         -71.675827     -191.205780      -63.150677
 H         -72.117676     -191.499298      -64.893822
 H         -70.321678     -188.981552      -62.723785
 H         -69.653854     -188.030258      -64.251801
 H         -73.977127     -190.599945      -63.201065
 H         -73.749115     -189.803940      -64.712135
 H         -71.983070     -187.605408      -64.867416
 H         -71.616180     -186.804794      -63.240635
 H         -72.719620     -188.546295      -62.050415
 H         -73.890503     -187.822403      -63.170784
