20
 generated by VMD
 C         -68.992363     -184.838257      -66.509323
 N         -69.491753     -185.394928      -67.402817
 H         -69.857918     -182.880768      -63.139256
 H         -68.576355     -184.370972      -65.603531
 C         -69.259407     -183.440430      -62.479362
 C         -69.835213     -184.561813      -61.693554
 C         -68.104759     -182.641495      -61.816994
 C         -68.726395     -185.574402      -61.332638
 C         -67.032944     -183.696304      -61.237240
 C         -67.694183     -184.902817      -60.436474
 H         -70.497345     -185.086777      -62.324989
 H         -70.361397     -184.072052      -60.824383
 H         -67.546814     -181.962234      -62.516273
 H         -68.549904     -181.992096      -61.052326
 H         -68.176872     -185.927002      -62.268768
 H         -69.119102     -186.498077      -60.842113
 H         -66.182617     -183.160675      -60.616699
 H         -66.393837     -184.131729      -62.061089
 H         -66.904305     -185.492172      -60.049461
 H         -68.114441     -184.385345      -59.487595
