20
 generated by VMD
 C         -60.021053     -169.702560      -55.422909
 N         -59.578217     -168.665222      -55.113663
 H         -62.984718     -170.474915      -56.570461
 H         -60.414696     -170.591904      -55.882198
 C         -63.331116     -169.479294      -56.886456
 C         -62.716812     -169.008347      -58.134457
 C         -63.601742     -168.382980      -55.795353
 C         -63.430565     -167.697235      -58.628269
 C         -64.225861     -167.163757      -56.377666
 C         -63.447586     -166.621658      -57.576603
 H         -62.927006     -169.715012      -58.831318
 H         -61.597309     -168.703323      -58.169678
 H         -64.225372     -168.826401      -55.147446
 H         -62.719852     -168.226196      -55.316284
 H         -64.474205     -167.802780      -59.021244
 H         -62.843239     -167.379471      -59.532658
 H         -64.183777     -166.364563      -55.682137
 H         -65.166222     -167.338486      -56.679882
 H         -63.891087     -165.668716      -57.812069
 H         -62.412273     -166.319672      -57.252392
