20
 generated by VMD
 C         -11.784745      -41.589794       -6.204280
 N         -10.847052      -41.914055       -6.725474
 H         -14.691300      -41.610863       -8.432693
 H         -15.559127      -40.926960       -9.936059
 C         -15.348783      -41.750851       -9.309321
 C         -16.644794      -42.263718       -8.760756
 C         -14.661596      -42.808674      -10.123210
 C         -17.565214      -42.486828       -9.936823
 C         -15.507678      -43.136860      -11.366554
 C         -16.953478      -43.476624      -10.884695
 H         -17.060686      -41.650196       -8.005286
 H         -16.496288      -43.196598       -8.206320
 H         -13.662341      -42.515678      -10.453725
 H         -14.411524      -43.734680       -9.566399
 H         -17.868504      -41.485359      -10.279223
 H         -18.553467      -42.872536       -9.639093
 H         -15.087379      -44.012115      -11.864171
 H         -15.576941      -42.263084      -12.094156
 H         -17.548975      -43.521191      -11.801793
 H         -16.981655      -44.471256      -10.328925
