20
 generated by VMD
 C         -32.414249      -93.350037      -25.392807
 N         -32.971916      -94.351593      -25.580835
 H         -33.756989      -95.038780      -28.612986
 H         -31.656157      -92.495018      -25.159374
 C         -34.301872      -94.227295      -29.204353
 C         -35.471424      -93.567055      -28.492647
 C         -33.718842      -93.382698      -30.247355
 C         -35.298954      -92.069748      -28.142490
 C         -33.553551      -91.937416      -29.890055
 C         -34.848846      -91.210342      -29.382956
 H         -35.751068      -94.291946      -27.756907
 H         -36.303871      -93.660500      -29.269667
 H         -32.750183      -93.695541      -30.682646
 H         -34.480732      -93.379532      -31.018206
 H         -34.630630      -92.038170      -27.271559
 H         -36.338882      -91.823433      -27.959663
 H         -33.104782      -91.332062      -30.647364
 H         -32.771152      -91.887543      -29.046408
 H         -34.653103      -90.169159      -29.033844
 H         -35.721127      -91.443703      -30.070889
