20
 generated by VMD
 C         -13.817515      -42.857658       -6.008793
 N         -12.886353      -43.358658       -6.400985
 H         -14.896651      -45.190525       -8.969223
 H         -14.277412      -43.870804       -9.955233
 C         -15.152017      -44.515541       -9.743268
 C         -16.366102      -43.652126       -9.425566
 C         -15.429395      -45.288170      -11.045891
 C         -16.949123      -42.786812      -10.568730
 C         -15.896815      -44.340813      -12.178617
 C         -17.157946      -43.504898      -11.899520
 H         -16.012913      -42.945938       -8.659520
 H         -17.224281      -44.283817       -9.088249
 H         -14.515180      -45.734138      -11.381970
 H         -16.140192      -46.005123      -10.790120
 H         -16.225107      -41.953457      -10.764998
 H         -17.896368      -42.329075      -10.229826
 H         -16.025192      -44.710220      -13.163175
 H         -15.002105      -43.622913      -12.254542
 H         -17.299698      -42.767597      -12.668118
 H         -18.055155      -44.109158      -11.933210
