20
 generated by VMD
 C         -59.078255     -151.950363      -49.095020
 N         -58.929398     -152.229004      -50.172691
 H         -56.540569     -150.529556      -48.655178
 H         -59.236603     -151.794495      -48.043743
 C         -55.611542     -150.268036      -49.104286
 C         -54.771805     -151.348221      -49.730900
 C         -55.369022     -148.872070      -49.229923
 C         -54.181351     -150.886108      -51.045837
 C         -54.802788     -148.445541      -50.510834
 C         -53.727840     -149.403427      -50.978176
 H         -55.368382     -152.252625      -49.974792
 H         -53.934303     -151.494476      -48.977165
 H         -56.369755     -148.388672      -49.081429
 H         -54.870396     -148.511932      -48.320278
 H         -54.923473     -151.023087      -51.877422
 H         -53.275154     -151.420776      -51.314842
 H         -54.571278     -147.427200      -50.499264
 H         -55.699322     -148.385925      -51.245110
 H         -53.431282     -149.125214      -51.962681
 H         -52.737789     -149.295547      -50.454548
