20
 generated by VMD
 C         -13.166305      -28.145477       -3.835468
 N         -13.953976      -27.475676       -4.267456
 H         -10.448502      -28.972734       -2.568057
 H         -10.302403      -27.694006       -3.760459
 C          -9.778438      -28.483891       -3.295267
 C          -9.270187      -29.458138       -4.302218
 C          -8.601340      -28.031157       -2.407755
 C          -8.164257      -28.870476       -5.157307
 C          -7.495929      -27.384464       -3.272900
 C          -7.000892      -28.258835       -4.347841
 H         -10.062838      -29.785042       -4.943727
 H          -9.000847      -30.493620       -3.900208
 H          -8.963980      -27.330667       -1.686797
 H          -8.196070      -28.801430       -1.762451
 H          -8.495762      -28.116711       -5.946508
 H          -7.791738      -29.699034       -5.789676
 H          -6.631425      -27.188572       -2.662719
 H          -7.746649      -26.347122       -3.581431
 H          -6.443393      -27.675173       -5.090018
 H          -6.384531      -29.055336       -3.900916
