20
 generated by VMD
 C         -13.370278      -44.464054       -6.570446
 N         -13.993484      -44.061478       -5.748312
 H         -15.137001      -44.787811       -8.875829
 H         -14.358103      -43.946968      -10.094954
 C         -15.301970      -44.425388       -9.924726
 C         -16.434963      -43.411552       -9.914159
 C         -15.528383      -45.571701      -10.938242
 C         -16.855606      -42.948669      -11.311739
 C         -16.144344      -45.121361      -12.280426
 C         -17.332813      -44.157669      -12.093588
 H         -16.363026      -42.509872       -9.280335
 H         -17.217651      -43.946709       -9.368883
 H         -14.644649      -46.187714      -11.030986
 H         -16.167048      -46.362328      -10.515516
 H         -15.998243      -42.399464      -11.737206
 H         -17.685537      -42.213158      -11.223436
 H         -16.526951      -46.027462      -12.846474
 H         -15.414773      -44.721058      -12.948069
 H         -17.614300      -43.900013      -13.097960
 H         -18.140354      -44.640312      -11.575593
