20
 generated by VMD
 C         -60.759129     -154.046417      -51.296890
 N         -61.326294     -154.314468      -52.246723
 H         -57.551357     -153.589218      -52.583767
 H         -60.106594     -153.807404      -50.481483
 C         -56.721317     -153.501801      -51.893795
 C         -56.915752     -153.955994      -50.471615
 C         -55.659431     -152.530197      -52.322517
 C         -55.637859     -154.100388      -49.647877
 C         -54.415836     -152.814972      -51.596386
 C         -54.627598     -153.065247      -50.064011
 H         -57.395103     -154.904556      -50.275391
 H         -57.583469     -153.313583      -49.964745
 H         -55.515282     -152.760971      -53.432182
 H         -56.005833     -151.491699      -52.304218
 H         -55.028305     -155.073669      -49.789860
 H         -55.824898     -154.173813      -48.537956
 H         -53.533577     -152.095276      -51.877525
 H         -54.111115     -153.794067      -51.811386
 H         -53.654564     -153.283813      -49.752899
 H         -54.885754     -152.170746      -49.391144
