20
 generated by VMD
 C         -68.884430     -185.896851      -66.241852
 N         -68.406181     -186.173950      -67.278305
 H         -69.455124     -183.012146      -63.554352
 H         -69.300049     -185.573273      -65.306534
 C         -69.295197     -183.853180      -62.771587
 C         -70.433411     -184.819778      -62.627193
 C         -67.921494     -183.968124      -62.216488
 C         -70.233383     -185.823090      -61.472511
 C         -67.779480     -185.267059      -61.467541
 C         -68.772705     -186.334671      -61.449482
 H         -70.486954     -185.552460      -63.469166
 H         -71.461098     -184.425751      -62.630295
 H         -67.178452     -183.803879      -63.023685
 H         -67.880539     -183.089523      -61.615360
 H         -70.969269     -186.651413      -61.661091
 H         -70.430267     -185.520523      -60.434719
 H         -67.537727     -185.157654      -60.343784
 H         -66.837402     -185.654831      -61.931606
 H         -68.608574     -186.824524      -62.288841
 H         -68.628632     -187.110214      -60.758652
