20
 generated by VMD
 C         -50.693989     -129.081406      -42.647579
 N         -50.913734     -128.146698      -41.928734
 H         -48.204681     -127.980644      -40.738190
 H         -50.328907     -129.934540      -43.214199
 C         -47.229828     -127.583984      -40.735096
 C         -46.132256     -128.331528      -40.071472
 C         -47.115166     -126.192520      -41.173805
 C         -44.818436     -128.120819      -40.918274
 C         -45.841938     -126.026230      -41.981270
 C         -44.591667     -126.601891      -41.265110
 H         -46.324341     -129.370712      -40.138294
 H         -45.910831     -127.966064      -39.014786
 H         -47.975677     -126.053192      -41.759129
 H         -47.030937     -125.448380      -40.356659
 H         -44.970734     -128.578720      -41.887131
 H         -43.946487     -128.642548      -40.665417
 H         -45.583447     -124.932434      -42.117306
 H         -45.855148     -126.362381      -43.046822
 H         -43.624802     -126.522850      -41.732281
 H         -44.362621     -126.109169      -40.335365
