20
 generated by VMD
 C         -66.751335     -177.890335      -56.997883
 N         -67.822670     -178.356033      -56.865925
 H         -64.358513     -176.224503      -59.361694
 H         -65.769539     -177.439362      -57.046001
 C         -64.286095     -175.130478      -59.638645
 C         -65.486374     -174.266418      -59.385738
 C         -63.142048     -174.500183      -60.416157
 C         -65.196068     -172.824051      -59.229927
 C         -63.004475     -173.008499      -60.394211
 C         -64.345200     -172.352264      -60.416950
 H         -66.134300     -174.643173      -58.649036
 H         -65.950218     -174.313492      -60.427231
 H         -62.204182     -174.858826      -60.078175
 H         -63.341042     -174.751190      -61.504105
 H         -64.715622     -172.629929      -58.218803
 H         -66.173058     -172.297592      -59.137970
 H         -62.224846     -172.803970      -61.207493
 H         -62.643616     -172.630142      -59.473389
 H         -64.260010     -171.216354      -60.341812
 H         -65.018997     -172.588486      -61.254169
