20
 generated by VMD
 C         -69.783844     -183.230377      -65.632889
 N         -70.675156     -182.586014      -65.910057
 H         -68.087067     -183.994690      -63.059307
 H         -68.947403     -183.931915      -65.437317
 C         -67.753304     -183.453186      -62.183861
 C         -67.724228     -184.096786      -60.872551
 C         -67.413773     -181.984756      -62.367668
 C         -66.973885     -183.319901      -59.744186
 C         -66.692986     -181.251877      -61.223778
 C         -67.156212     -181.806290      -59.845543
 H         -67.187889     -185.026581      -60.942497
 H         -68.727219     -184.249512      -60.560635
 H         -66.778488     -182.044876      -63.186356
 H         -68.206848     -181.257797      -62.753246
 H         -65.889786     -183.687500      -59.940025
 H         -67.317131     -183.595490      -58.688419
 H         -66.739456     -180.135834      -61.405979
 H         -65.625145     -181.491623      -61.276329
 H         -66.599495     -181.377777      -59.085812
 H         -68.195076     -181.511490      -59.788597
