20
 generated by VMD
 C         -78.148567     -204.147964      -70.114098
 N         -79.251595     -203.815353      -70.019691
 H         -76.249939     -203.017120      -68.002815
 H         -77.096848     -204.459961      -69.966805
 C         -75.640152     -202.835358      -68.876022
 C         -75.872871     -201.512253      -69.560883
 C         -74.272888     -203.479446      -68.792770
 C         -74.907089     -201.340424      -70.765625
 C         -73.109894     -202.665756      -69.367638
 C         -73.410103     -201.583267      -70.327713
 H         -75.667778     -200.778748      -68.735748
 H         -76.870125     -201.418518      -70.025246
 H         -73.956223     -203.809387      -67.796822
 H         -74.367340     -204.451691      -69.274673
 H         -75.099266     -200.390305      -71.310387
 H         -75.117004     -202.124222      -71.458519
 H         -72.447769     -203.380569      -69.946602
 H         -72.508171     -202.343643      -68.444305
 H         -73.154564     -200.565781      -69.842575
 H         -72.815163     -201.477890      -71.189117
