20
 generated by VMD
 C         -78.940399     -207.265228      -75.298027
 N         -79.878777     -206.989777      -75.890152
 H         -77.914612     -209.308594      -73.308212
 H         -78.018127     -207.672089      -74.775543
 C         -77.685822     -209.266068      -72.260918
 C         -76.403542     -208.491974      -71.848915
 C         -78.397789     -210.307999      -71.451439
 C         -76.571213     -208.184921      -70.343674
 C         -78.208809     -210.113403      -69.927986
 C         -76.852493     -209.379333      -69.528336
 H         -76.157875     -207.534531      -72.360764
 H         -75.504272     -209.135651      -72.032509
 H         -79.456612     -210.500656      -71.658371
 H         -77.749405     -211.080505      -71.847740
 H         -77.397072     -207.438553      -70.238129
 H         -75.639618     -207.656494      -70.009071
 H         -78.342644     -211.011124      -69.392349
 H         -78.941971     -209.360245      -69.491013
 H         -76.893707     -209.163422      -68.459534
 H         -75.932854     -209.898819      -69.651855
