20
 generated by VMD
 C         -31.521446      -79.276382      -26.438196
 N         -30.896059      -78.282349      -26.487175
 H         -28.568769      -81.354866      -25.459988
 H         -32.282116      -80.099388      -26.137877
 C         -28.753393      -81.631203      -24.361595
 C         -27.685976      -81.431160      -23.375164
 C         -29.882315      -82.571411      -24.132370
 C         -28.258427      -81.244286      -21.932108
 C         -30.505283      -82.370705      -22.709265
 C         -29.402428      -82.315956      -21.547457
 H         -27.096710      -80.574249      -23.555485
 H         -27.129417      -82.345291      -23.185478
 H         -30.712467      -82.288063      -24.727417
 H         -29.545137      -83.650772      -24.396009
 H         -28.613380      -80.222748      -21.909388
 H         -27.415672      -81.292381      -21.146751
 H         -31.125715      -83.202278      -22.398153
 H         -31.162066      -81.442970      -22.698858
 H         -29.823812      -82.199814      -20.538662
 H         -28.926983      -83.275688      -21.531195
