20
 generated by VMD
 C         -38.333969      -98.594093      -27.771585
 N         -38.364010      -99.675880      -27.336185
 H         -37.340492      -97.011971      -31.014975
 H         -38.411434      -97.700958      -28.313021
 C         -36.449619      -97.687561      -30.743299
 C         -35.664562      -98.062363      -31.934956
 C         -35.662224      -97.228249      -29.513475
 C         -34.362144      -97.271339      -32.248249
 C         -34.603088      -96.211731      -29.893295
 C         -33.587986      -96.768600      -30.938932
 H         -36.352600      -97.965759      -32.736546
 H         -35.434296      -99.166756      -31.817892
 H         -36.275101      -96.900314      -28.716866
 H         -35.041897      -98.064301      -29.210850
 H         -34.634266      -96.296371      -32.650223
 H         -33.708176      -97.667572      -33.109318
 H         -34.017490      -96.044243      -28.976564
 H         -35.084484      -95.350525      -30.221813
 H         -32.888672      -95.981552      -31.283503
 H         -32.942192      -97.539742      -30.501514
