20
 generated by VMD
 C         -19.452206      -63.732689      -16.536221
 N         -20.150711      -63.012455      -17.152435
 H         -23.114365      -63.624172      -17.098438
 H         -18.855785      -64.490280      -16.251322
 C         -23.759769      -64.449532      -17.487698
 C         -24.419027      -64.176208      -18.869139
 C         -24.609488      -65.071297      -16.459721
 C         -24.754702      -65.584953      -19.514221
 C         -24.772379      -66.470558      -17.050301
 C         -25.441700      -66.466362      -18.414248
 H         -23.766598      -63.585842      -19.410103
 H         -25.348301      -63.628628      -18.785946
 H         -24.127607      -65.027542      -15.534783
 H         -25.566345      -64.565788      -16.176277
 H         -23.848261      -65.980873      -19.931641
 H         -25.511232      -65.285698      -20.262800
 H         -25.380732      -67.145485      -16.487633
 H         -23.789059      -66.981255      -17.087215
 H         -25.636011      -67.413628      -18.754248
 H         -26.453724      -66.033836      -18.164713
