20
 generated by VMD
 C         -41.030590     -103.901299      -35.910130
 N         -41.760632     -104.800392      -35.913429
 H         -38.911869     -103.932915      -32.780964
 H         -40.605846     -102.936630      -35.975502
 C         -38.400677     -104.839180      -32.827015
 C         -36.950886     -105.127304      -32.479355
 C         -39.275921     -106.010818      -33.199852
 C         -36.848183     -106.129822      -31.284788
 C         -39.150169     -107.010452      -31.853910
 C         -37.697704     -107.352188      -31.448038
 H         -36.249939     -104.220459      -32.200317
 H         -36.469856     -105.608147      -33.390213
 H         -40.352474     -105.690186      -33.277771
 H         -38.989769     -106.449249      -34.131382
 H         -37.086407     -105.585335      -30.409897
 H         -35.801289     -106.397354      -31.185158
 H         -39.768917     -107.895012      -32.253082
 H         -39.694748     -106.549271      -31.058727
 H         -37.730293     -107.883743      -30.517643
 H         -37.238571     -108.002251      -32.231155
