20
 generated by VMD
 C         -41.152443     -102.429718      -35.149208
 N         -41.550220     -103.158875      -35.972069
 H         -39.720524     -104.633881      -33.303169
 H         -40.821133     -101.743271      -34.432682
 C         -38.813622     -104.850502      -32.547710
 C         -37.367561     -104.374886      -32.947083
 C         -38.842094     -106.149452      -31.866367
 C         -36.427685     -104.433853      -31.763662
 C         -37.789745     -106.293846      -30.706337
 C         -36.351402     -105.784584      -31.075081
 H         -37.468918     -103.326195      -33.329727
 H         -36.876720     -104.920799      -33.832855
 H         -39.933006     -106.305405      -31.522871
 H         -38.636208     -106.986465      -32.555458
 H         -36.757000     -103.663063      -30.991873
 H         -35.364319     -104.124489      -31.953499
 H         -37.770691     -107.326836      -30.354887
 H         -38.286774     -105.688126      -29.876465
 H         -35.755726     -105.651672      -30.196842
 H         -35.790993     -106.615219      -31.668911
