20
 generated by VMD
 C         -16.652796      -47.735157       -7.284364
 N         -16.296200      -46.689602       -7.234394
 H         -16.816017      -48.459396      -10.283610
 H         -15.525256      -48.137981      -11.441294
 C         -16.517200      -47.752659      -11.107256
 C         -16.218687      -46.355782      -10.510148
 C         -17.456532      -47.857563      -12.290187
 C         -15.841043      -45.458252      -11.655124
 C         -17.045029      -46.864010      -13.354029
 C         -16.839134      -45.472385      -12.789590
 H         -15.283592      -46.475368       -9.933446
 H         -17.027269      -45.902328       -9.970394
 H         -17.459372      -48.870392      -12.743661
 H         -18.467615      -47.544605      -12.001589
 H         -14.848019      -45.737659      -12.023153
 H         -15.714755      -44.460732      -11.239945
 H         -17.730997      -47.017342      -14.129384
 H         -16.084898      -47.108913      -13.823457
 H         -16.512283      -44.729668      -13.537453
 H         -17.727781      -45.022678      -12.419920
