20
 generated by VMD
 C         -40.332527     -107.061684      -37.741936
 N         -39.260727     -106.613319      -37.887554
 H         -38.819065     -108.029549      -34.194042
 H         -41.345562     -107.456772      -37.977760
 C         -39.431976     -108.851295      -33.808018
 C         -38.891159     -110.166939      -33.418976
 C         -40.842850     -108.899651      -34.297054
 C         -39.683529     -110.726387      -32.295742
 C         -41.707878     -109.526611      -33.200493
 C         -41.141712     -110.903595      -32.694199
 H         -37.803833     -110.247139      -33.102947
 H         -39.073643     -110.846153      -34.275608
 H         -41.219349     -107.893829      -34.567139
 H         -40.871048     -109.556290      -35.166782
 H         -39.772911     -110.159538      -31.317392
 H         -39.126652     -111.678268      -32.150928
 H         -42.632256     -109.788712      -33.611012
 H         -41.869179     -108.804771      -32.467514
 H         -41.726665     -111.132141      -31.853205
 H         -41.328369     -111.666336      -33.451305
