20
 generated by VMD
 C         -21.563187      -52.417759      -11.320934
 N         -21.511526      -52.964039      -10.298894
 H         -19.701038      -50.411682      -14.129590
 H         -22.016127      -52.007595      -12.470588
 C         -18.884998      -50.994118      -13.618455
 C         -18.235811      -51.968178      -14.528129
 C         -18.309053      -50.726810      -12.260864
 C         -16.692137      -51.938057      -14.397229
 C         -16.758459      -50.784161      -12.196355
 C         -16.102051      -51.933617      -13.000834
 H         -18.542688      -51.924755      -15.568648
 H         -18.529421      -52.961876      -14.112145
 H         -18.608473      -49.756054      -11.883866
 H         -18.706173      -51.416782      -11.497730
 H         -16.362364      -51.053577      -14.936134
 H         -16.146250      -52.727718      -14.873806
 H         -16.475965      -50.850357      -11.153580
 H         -16.286169      -49.794434      -12.474492
 H         -15.012515      -51.766586      -13.025579
 H         -16.249121      -52.893612      -12.479230
