20
 generated by VMD
 C         -67.610191     -179.607651      -58.615318
 N         -68.176315     -179.757492      -59.596920
 H         -67.448090     -177.205185      -60.159184
 H         -67.149963     -179.462402      -57.626949
 C         -66.449806     -176.575790      -60.093212
 C         -66.121941     -175.866348      -61.452396
 C         -65.318413     -177.015213      -59.257175
 C         -64.990860     -174.833191      -61.222179
 C         -64.142639     -176.075562      -59.166309
 C         -63.747128     -175.406097      -60.463585
 H         -67.079399     -175.371078      -61.748226
 H         -65.693848     -176.563309      -62.188286
 H         -65.585022     -177.188599      -58.204617
 H         -64.788345     -177.936127      -59.608585
 H         -65.386276     -173.862442      -60.752502
 H         -64.699509     -174.612701      -62.355793
 H         -63.187187     -176.489136      -58.731636
 H         -64.356567     -175.368896      -58.352978
 H         -63.259007     -174.525101      -60.000622
 H         -63.162220     -176.019730      -61.202301
