20
 generated by VMD
 C         -70.311218     -182.768158      -65.831429
 N         -71.057899     -183.587982      -65.614006
 H         -67.704712     -182.172165      -63.139927
 H         -69.677200     -181.936539      -66.045601
 C         -67.249672     -182.043945      -62.104305
 C         -67.630234     -183.092484      -61.080894
 C         -67.038925     -180.574265      -61.578709
 C         -66.679230     -183.001373      -59.974529
 C         -65.979950     -180.600433      -60.516804
 C         -66.451271     -181.564575      -59.409801
 H         -67.727943     -184.081772      -61.590080
 H         -68.665047     -183.072830      -60.633450
 H         -66.808311     -179.831238      -62.353500
 H         -67.951767     -180.267181      -61.197571
 H         -65.650253     -183.284088      -60.304649
 H         -67.074997     -183.648956      -59.167248
 H         -65.903351     -179.553528      -60.170944
 H         -64.987724     -180.910934      -60.766193
 H         -65.568031     -181.499832      -58.685261
 H         -67.343788     -181.125565      -58.947147
