20
 generated by VMD
 C         -22.480623      -55.587646      -16.395557
 N         -23.159040      -54.554607      -16.332548
 H         -19.648964      -55.584461      -15.524572
 H         -21.865028      -56.373745      -16.566906
 C         -19.822130      -56.609795      -15.071358
 C         -20.476568      -56.665855      -13.738235
 C         -18.695745      -57.488728      -15.132425
 C         -20.973936      -58.049637      -13.494390
 C         -18.978237      -58.893639      -14.687344
 C         -19.717010      -58.899117      -13.359101
 H         -21.427755      -56.071930      -13.774921
 H         -19.797308      -56.295498      -12.953700
 H         -18.459312      -57.429409      -16.208637
 H         -17.960972      -56.977306      -14.504146
 H         -21.676140      -58.339333      -14.356316
 H         -21.547638      -58.184467      -12.565135
 H         -18.016542      -59.498505      -14.619905
 H         -19.601469      -59.421036      -15.428300
 H         -20.031687      -59.932148      -13.112112
 H         -19.126076      -58.544010      -12.538067
