20
 generated by VMD
 C         -68.996445     -180.243805      -59.365433
 N         -68.482758     -180.676224      -60.325645
 H         -67.390762     -176.904739      -59.638302
 H         -69.473015     -179.977737      -58.437225
 C         -66.415565     -176.818970      -59.893208
 C         -66.080528     -176.481049      -61.367069
 C         -65.257072     -177.083084      -58.961166
 C         -64.829941     -175.564713      -61.619751
 C         -64.156677     -176.013962      -59.139759
 C         -63.712914     -175.957596      -60.598343
 H         -66.889664     -175.966766      -61.878872
 H         -65.828636     -177.464859      -61.836636
 H         -65.677788     -177.050522      -57.940441
 H         -64.914391     -178.164246      -59.140133
 H         -65.073051     -174.548798      -61.444443
 H         -64.388969     -175.537689      -62.636959
 H         -63.372513     -176.336945      -58.394215
 H         -64.503777     -175.102036      -58.649689
 H         -63.144260     -175.076111      -60.834419
 H         -63.187817     -176.897415      -60.954868
