20
 generated by VMD
 C         -50.341381     -145.207230      -45.131210
 N         -50.000843     -144.875824      -44.021702
 H         -53.170620     -143.536240      -45.914753
 H         -50.459389     -145.401733      -46.171665
 C         -53.456470     -143.069000      -46.867798
 C         -52.510853     -142.901306      -48.060745
 C         -54.669701     -142.129501      -46.902565
 C         -53.327450     -143.132950      -49.336174
 C         -55.448414     -142.271103      -48.216511
 C         -54.536556     -142.222351      -49.355515
 H         -51.535217     -143.483582      -48.051029
 H         -52.116844     -141.853394      -48.075924
 H         -55.377960     -142.458878      -46.144329
 H         -54.426197     -141.105499      -46.841175
 H         -53.626896     -144.227829      -49.252010
 H         -52.798145     -143.017441      -50.309090
 H         -56.041183     -141.372787      -48.203411
 H         -56.172272     -143.029434      -48.270100
 H         -55.270088     -142.431595      -50.200439
 H         -54.284370     -141.175797      -49.620094
