20
 generated by VMD
 C         -57.552094     -165.978714      -56.576702
 N         -58.079399     -166.842377      -55.931847
 H         -60.707230     -165.081833      -54.458542
 H         -57.155476     -165.118515      -57.073978
 C         -61.655979     -165.350586      -54.926216
 C         -61.844261     -166.661514      -55.514126
 C         -62.404980     -164.216827      -55.420162
 C         -63.280594     -167.004486      -55.820114
 C         -63.850128     -164.650085      -55.649075
 C         -63.972404     -165.865128      -56.586803
 H         -61.260822     -167.474518      -54.819733
 H         -61.229874     -166.815018      -56.419342
 H         -62.421425     -163.366180      -54.847672
 H         -61.893150     -163.937943      -56.396553
 H         -63.735500     -167.156723      -54.813580
 H         -63.300003     -167.899521      -56.436504
 H         -64.567131     -163.691422      -55.994194
 H         -64.282494     -164.914429      -54.645962
 H         -65.096924     -166.099976      -56.790482
 H         -63.521645     -165.679459      -57.622307
