20
 generated by VMD
 C         -22.556738      -52.276695      -11.699677
 N         -22.413651      -52.674648      -10.656904
 H         -19.933302      -52.367744      -14.090879
 H         -23.095781      -52.058201      -12.756771
 C         -18.859167      -52.295582      -13.843013
 C         -17.907682      -51.713509      -14.879617
 C         -18.382093      -53.095486      -12.647770
 C         -16.541258      -52.292187      -14.596187
 C         -17.224199      -52.309860      -12.067762
 C         -16.100914      -52.114719      -13.135912
 H         -17.818026      -50.593563      -14.679746
 H         -18.147453      -51.854588      -15.949849
 H         -19.185061      -53.202267      -11.947526
 H         -18.066158      -54.077183      -12.962347
 H         -15.828892      -51.782478      -15.273738
 H         -16.544376      -53.373066      -14.826271
 H         -16.733746      -52.723232      -11.135566
 H         -17.630865      -51.274956      -11.774205
 H         -15.814410      -51.064186      -12.926586
 H         -15.209604      -52.780384      -12.985145
