20
 generated by VMD
 C         -19.487991      -61.528114      -16.561985
 N         -19.877623      -60.473331      -16.235493
 H         -21.981386      -62.487301      -18.302221
 H         -19.232424      -62.526611      -17.026834
 C         -22.789448      -63.083622      -17.833759
 C         -24.060946      -63.319641      -18.699125
 C         -23.034678      -63.014767      -16.365583
 C         -24.617599      -64.658615      -18.102564
 C         -23.527430      -64.479538      -15.997006
 C         -24.896017      -64.799377      -16.617365
 H         -23.732420      -63.424068      -19.711702
 H         -24.766815      -62.542469      -18.599453
 H         -22.145798      -62.697086      -15.868246
 H         -23.882345      -62.394112      -16.079826
 H         -23.961691      -65.539001      -18.517054
 H         -25.488228      -64.870697      -18.700417
 H         -23.753254      -64.481110      -14.906422
 H         -22.772625      -65.218918      -16.320168
 H         -25.209171      -65.826553      -16.305470
 H         -25.563904      -64.171013      -16.071024
