20
 generated by VMD
 C          -9.572893      -25.042004        0.658742
 N         -10.561799      -25.493395        0.965973
 H          -6.305350      -23.239943       -0.719205
 H          -7.837427      -22.715658       -1.306140
 C          -6.878800      -23.227222       -1.664785
 C          -7.203865      -24.568745       -2.304667
 C          -6.352380      -22.168739       -2.645257
 C          -8.146441      -24.371704       -3.503475
 C          -7.287053      -22.080414       -3.883225
 C          -7.535944      -23.437586       -4.526020
 H          -7.665648      -25.299583       -1.709999
 H          -6.233783      -24.961046       -2.708477
 H          -6.232249      -21.233692       -2.118374
 H          -5.399499      -22.551041       -3.055763
 H          -9.065966      -23.935844       -3.102168
 H          -8.315757      -25.310064       -4.029799
 H          -6.869447      -21.328039       -4.592821
 H          -8.276591      -21.719019       -3.532072
 H          -8.229119      -23.332630       -5.328734
 H          -6.594477      -23.847921       -4.847970
