20
 generated by VMD
 C         -68.442307     -185.587112      -66.146111
 N         -69.097336     -186.022980      -67.010658
 H         -69.569740     -183.187424      -63.855503
 H         -67.962311     -185.161285      -65.301514
 C         -69.222290     -183.818741      -62.985126
 C         -70.323486     -184.678467      -62.465473
 C         -67.956993     -183.731033      -62.208614
 C         -69.939545     -185.893112      -61.661438
 C         -67.725632     -184.781799      -61.055843
 C         -68.411964     -186.094528      -61.487926
 H         -70.962387     -185.059448      -63.261642
 H         -70.930466     -184.099274      -61.797066
 H         -67.226662     -183.895050      -63.036152
 H         -67.952171     -182.696259      -61.809513
 H         -70.390137     -186.853882      -61.824551
 H         -70.363289     -185.691330      -60.668079
 H         -68.289665     -184.409409      -60.207455
 H         -66.661659     -184.934464      -60.719124
 H         -67.928505     -186.587082      -62.249779
 H         -68.275955     -186.833038      -60.705379
