20
 generated by VMD
 C         -67.405975     -191.670395      -66.300682
 N         -66.988297     -191.261337      -67.283447
 H         -70.192848     -190.006516      -66.153954
 H         -67.618568     -192.017441      -65.249481
 C         -71.086517     -190.096146      -65.523102
 C         -72.029358     -191.217926      -65.696831
 C         -71.097656     -189.115662      -64.433861
 C         -73.310120     -190.955963      -64.986298
 C         -72.257324     -189.160721      -63.477180
 C         -73.080414     -190.412292      -63.491913
 H         -71.587151     -192.276123      -65.586060
 H         -72.232903     -191.133682      -66.816383
 H         -70.151939     -189.347733      -63.906536
 H         -70.938766     -188.107391      -64.833481
 H         -73.823959     -191.908997      -64.948128
 H         -73.819611     -190.190033      -65.575890
 H         -72.879883     -188.342117      -63.818974
 H         -71.794579     -189.050354      -62.483818
 H         -72.552322     -191.253647      -62.931690
 H         -74.111778     -190.324860      -62.976627
