20
 generated by VMD
 C         -49.852383     -142.363693      -45.193314
 N         -48.960999     -143.054504      -45.329651
 H         -51.833973     -139.379532      -45.818222
 H         -50.727261     -141.737030      -45.034164
 C         -52.485279     -139.984283      -46.442280
 C         -52.391357     -140.259964      -47.831432
 C         -53.795410     -140.395813      -45.730797
 C         -52.847660     -141.579376      -48.276131
 C         -54.248035     -141.751160      -46.120102
 C         -54.227764     -141.888718      -47.694206
 H         -51.391651     -140.109482      -48.156647
 H         -52.892410     -139.582382      -48.508797
 H         -53.676174     -140.396393      -44.600140
 H         -54.436306     -139.470352      -46.005131
 H         -52.148682     -142.316544      -48.065857
 H         -52.787506     -141.682709      -49.317459
 H         -55.272228     -141.944366      -45.908981
 H         -53.641827     -142.499741      -45.586445
 H         -54.559998     -142.878403      -47.963860
 H         -55.029396     -141.387512      -48.140491
