20
 generated by VMD
 C         -60.084446     -157.496536      -55.969112
 N         -60.049683     -157.774567      -57.057884
 H         -60.041199     -157.231216      -52.696667
 H         -60.185123     -157.118851      -54.988239
 C         -59.293961     -158.002502      -52.797726
 C         -57.899868     -157.701416      -52.205528
 C         -59.520233     -159.447830      -53.054600
 C         -57.676418     -158.585037      -50.919693
 C         -59.114872     -160.293991      -51.868969
 C         -57.776714     -159.949356      -51.275032
 H         -57.736397     -156.536728      -52.043404
 H         -57.193958     -157.921509      -52.993084
 H         -60.539814     -159.561127      -53.444553
 H         -58.764366     -159.731461      -53.892406
 H         -58.365490     -158.347733      -50.140873
 H         -56.649696     -158.204666      -50.612595
 H         -59.209000     -161.353088      -52.248665
 H         -59.748856     -160.204697      -50.987736
 H         -57.486629     -160.516449      -50.443550
 H         -56.926983     -160.247284      -52.070095
