20
 generated by VMD
 C         -13.730761      -28.731989       -6.902918
 N         -13.224191      -28.866762       -7.891064
 H         -12.001393      -30.773386       -4.981261
 H         -10.570552      -29.855724       -4.513413
 C         -10.948023      -30.840734       -4.592487
 C         -10.025375      -31.540239       -5.576896
 C         -10.924523      -31.499178       -3.185141
 C          -8.654993      -31.830572       -5.021173
 C          -9.506441      -32.055958       -2.640651
 C          -8.756091      -32.713524       -3.786145
 H          -9.742602      -30.913876       -6.426191
 H         -10.536320      -32.451088       -6.024201
 H         -11.340134      -30.743065       -2.448261
 H         -11.634123      -32.347767       -3.160639
 H          -8.055961      -30.936907       -4.739992
 H          -8.090522      -32.374454       -5.783010
 H          -9.739613      -32.783077       -1.864972
 H          -8.963276      -31.242016       -2.100527
 H          -7.724947      -32.853451       -3.504550
 H          -9.185678      -33.642975       -4.016420
