20
 generated by VMD
 C         -70.303337     -182.709717      -65.705826
 N         -71.005791     -183.652130      -65.599236
 H         -67.907173     -181.964249      -63.115658
 H         -69.604767     -181.914413      -65.780472
 C         -67.458435     -181.828934      -62.089664
 C         -67.550774     -182.942627      -61.172119
 C         -67.034729     -180.505875      -61.568264
 C         -66.633987     -183.032181      -59.905083
 C         -65.952606     -180.565552      -60.527946
 C         -66.359489     -181.589523      -59.368439
 H         -67.452896     -183.927017      -61.788589
 H         -68.641808     -183.114380      -60.821857
 H         -66.640312     -179.996948      -62.456123
 H         -67.866173     -179.991623      -61.318588
 H         -65.686920     -183.476807      -60.215691
 H         -67.120071     -183.542679      -59.139473
 H         -65.718742     -179.557175      -60.106640
 H         -65.025200     -180.903763      -60.958584
 H         -65.502472     -181.495056      -58.590488
 H         -67.299469     -181.238220      -58.929497
