20
 generated by VMD
 C         -39.557522     -105.514709      -37.298122
 N         -40.378441     -104.778290      -36.971825
 H         -38.979851     -108.908897      -35.357880
 H         -38.889694     -106.334984      -37.463207
 C         -39.440960     -108.664230      -34.420471
 C         -38.429409     -108.336784      -33.347187
 C         -40.679569     -109.505875      -33.980350
 C         -38.967564     -108.272728      -31.966501
 C         -40.997330     -109.445045      -32.566372
 C         -39.732132     -109.582359      -31.677439
 H         -38.012119     -107.238197      -33.428333
 H         -37.560223     -109.042763      -33.381180
 H         -41.450237     -109.026642      -34.540634
 H         -40.619278     -110.499924      -34.334347
 H         -39.662785     -107.495850      -31.827450
 H         -38.106613     -108.132347      -31.280979
 H         -41.646389     -110.313065      -32.203682
 H         -41.647205     -108.606064      -32.216175
 H         -39.968372     -109.536179      -30.502413
 H         -39.125484     -110.423294      -31.820368
