20
 generated by VMD
 C         -59.557735     -152.158203      -50.740536
 N         -59.359020     -153.049530      -50.022327
 H         -56.545540     -151.280197      -48.477402
 H         -59.705479     -151.263260      -51.384834
 C         -55.914963     -150.860443      -49.238445
 C         -55.101192     -151.993790      -49.817696
 C         -55.480656     -149.463425      -49.255020
 C         -54.471882     -151.589539      -51.197475
 C         -54.834000     -149.190399      -50.551022
 C         -53.733860     -150.248276      -51.001808
 H         -55.788216     -152.818085      -50.018738
 H         -54.355431     -152.314926      -49.021305
 H         -56.353283     -148.802963      -49.051159
 H         -54.787758     -149.371658      -48.379818
 H         -55.375786     -151.320282      -51.790264
 H         -53.841076     -152.314438      -51.704025
 H         -54.491890     -148.148254      -50.535751
 H         -55.645912     -149.103882      -51.237095
 H         -53.281574     -149.849731      -51.980347
 H         -52.890633     -150.330429      -50.348083
