20
 generated by VMD
 C         -16.586508      -47.710762       -7.293992
 N         -16.248999      -46.653000       -7.245626
 H         -16.915251      -48.355652      -10.309058
 H         -15.555152      -48.131416      -11.426558
 C         -16.519110      -47.683029      -11.091944
 C         -16.196022      -46.346210      -10.445524
 C         -17.479469      -47.802002      -12.313016
 C         -15.853067      -45.386978      -11.602671
 C         -16.981945      -46.880932      -13.398062
 C         -16.868097      -45.494785      -12.774307
 H         -15.376056      -46.408718       -9.700212
 H         -17.053896      -46.042500       -9.872198
 H         -17.516081      -48.861435      -12.630202
 H         -18.515177      -47.562717      -11.979362
 H         -14.849471      -45.641792      -11.994655
 H         -15.873830      -44.342648      -11.299073
 H         -17.693630      -46.684914      -14.106263
 H         -16.069344      -47.300076      -13.841262
 H         -16.562511      -44.860416      -13.610785
 H         -17.854410      -45.293217      -12.424589
