20
 generated by VMD
 C         -28.793030      -73.507431      -19.145439
 N         -29.575405      -74.156952      -18.529484
 H         -25.816992      -72.809204      -18.807709
 H         -27.914810      -72.952003      -19.455572
 C         -25.527071      -72.673126      -19.806479
 C         -24.977970      -73.810310      -20.672007
 C         -25.761507      -71.350273      -20.402300
 C         -25.421164      -73.713158      -22.204777
 C         -26.266720      -71.355530      -21.894297
 C         -25.562943      -72.367004      -22.751579
 H         -25.120398      -74.796501      -20.253389
 H         -23.928123      -73.819221      -20.695560
 H         -26.489601      -70.900421      -19.736139
 H         -24.906904      -70.617966      -20.400154
 H         -26.480112      -74.148392      -22.263765
 H         -24.853291      -74.432579      -22.876245
 H         -26.264900      -70.309410      -22.289148
 H         -27.309441      -71.629524      -21.816393
 H         -26.212381      -72.458923      -23.604315
 H         -24.614632      -71.988365      -23.089254
