20
 generated by VMD
 C          -5.213073      -21.074305        1.613429
 N          -5.432703      -20.617834        2.604819
 H          -5.030436      -18.637794       -0.834191
 H          -5.526709      -20.196207        0.059849
 C          -5.801859      -19.442331       -0.859025
 C          -5.575429      -20.073950       -2.218518
 C          -7.174215      -18.870235       -0.697199
 C          -6.671505      -21.022190       -2.659156
 C          -8.267976      -19.792933       -1.143333
 C          -8.011894      -20.325003       -2.616417
 H          -4.610763      -20.630880       -2.280771
 H          -5.411411      -19.306292       -3.006402
 H          -7.222661      -18.597281        0.349184
 H          -7.177081      -17.859179       -1.177156
 H          -6.575278      -21.849958       -1.959578
 H          -6.514079      -21.434273       -3.616402
 H          -9.189734      -19.239378       -1.119967
 H          -8.358507      -20.686548       -0.477741
 H          -8.838428      -21.077803       -2.814234
 H          -8.146821      -19.601925       -3.455477
