20
 generated by VMD
 C         -50.841000     -129.280060      -45.053291
 N         -50.959641     -130.118820      -44.212776
 H         -49.143116     -128.379898      -41.799412
 H         -50.868778     -128.372726      -45.638229
 C         -48.203911     -128.662415      -41.225826
 C         -47.806278     -130.145401      -40.919453
 C         -47.152481     -127.625084      -40.892242
 C         -46.431511     -130.456589      -41.507713
 C         -45.706856     -128.070496      -41.307537
 C         -45.419529     -129.527176      -40.935200
 H         -48.546867     -130.925110      -41.323093
 H         -47.686424     -130.297501      -39.868217
 H         -47.450222     -126.692467      -41.351154
 H         -47.103546     -127.346794      -39.763180
 H         -46.267433     -130.436279      -42.631046
 H         -46.226097     -131.573288      -41.417614
 H         -44.989140     -127.301094      -40.926342
 H         -45.610661     -128.129379      -42.479752
 H         -44.486847     -129.782654      -41.407059
 H         -45.402039     -129.521790      -39.797546
