20
 generated by VMD
 C         -63.104328     -172.509827      -55.165176
 N         -62.581604     -173.561050      -55.109871
 H         -61.583855     -171.475571      -58.299839
 H         -63.524063     -171.489304      -55.176395
 C         -62.499386     -170.901352      -58.427654
 C         -62.397392     -169.456024      -58.172729
 C         -63.654202     -171.447510      -59.145733
 C         -63.661694     -168.649292      -58.116051
 C         -64.945786     -170.459824      -59.250557
 C         -64.976044     -169.521042      -57.975231
 H         -61.736446     -169.122040      -58.907158
 H         -61.816711     -169.432449      -57.157829
 H         -63.373985     -171.713715      -60.247532
 H         -64.095238     -172.309402      -58.620213
 H         -63.736767     -168.029480      -59.060150
 H         -63.575859     -168.001831      -57.275795
 H         -65.823372     -171.032654      -59.312168
 H         -64.743240     -169.872070      -60.127331
 H         -65.745338     -168.744400      -57.952198
 H         -65.001686     -170.152359      -57.015606
