20
 generated by VMD
 C         -40.084179     -100.792221      -31.756763
 N         -40.790585     -100.187645      -31.020761
 H         -37.499538     -103.412331      -32.056358
 H         -39.457474     -101.461838      -32.353760
 C         -36.902950     -102.562355      -31.701778
 C         -35.761551     -102.243393      -32.740269
 C         -36.810966     -102.199242      -30.266293
 C         -35.749828     -100.750870      -32.629017
 C         -36.245663     -100.785698      -30.013826
 C         -35.391125     -100.173302      -31.191679
 H         -35.950024     -102.691162      -33.704468
 H         -34.834793     -102.731636      -32.346977
 H         -37.834511     -102.347252      -29.772219
 H         -36.212933     -102.965683      -29.844975
 H         -36.836117     -100.278488      -32.859715
 H         -35.107838     -100.333351      -33.450901
 H         -35.698505     -100.843681      -29.164217
 H         -37.138920     -100.161690      -29.728483
 H         -35.464333      -99.036148      -31.098774
 H         -34.331364     -100.380836      -31.030056
