20
 generated by VMD
 C         -56.114006     -149.785599      -47.641045
 N         -57.122444     -150.257950      -47.251244
 H         -53.469959     -148.012299      -47.378258
 H         -55.097439     -149.576874      -48.082069
 C         -53.850658     -147.823044      -48.373501
 C         -53.322712     -148.446823      -49.578411
 C         -54.568184     -146.557709      -48.518719
 C         -54.218555     -148.474884      -50.762043
 C         -55.488949     -146.564468      -49.703194
 C         -54.778038     -147.083084      -50.968067
 H         -52.755234     -149.329849      -49.197414
 H         -52.455338     -147.821945      -49.918739
 H         -55.103642     -146.187729      -47.731598
 H         -53.840134     -145.768005      -48.584747
 H         -54.954956     -149.294403      -50.750507
 H         -53.508408     -148.704865      -51.528412
 H         -55.976448     -145.643951      -49.680122
 H         -56.400661     -147.295349      -49.500221
 H         -55.406765     -147.089310      -51.829693
 H         -53.912369     -146.444748      -51.190731
