20
 generated by VMD
 C          -3.689952      -18.970821        2.342189
 N          -3.275362      -18.283419        3.114834
 H          -5.572801      -20.436188        0.258196
 H          -6.241755      -21.212442       -1.165285
 C          -6.173698      -20.273394       -0.625462
 C          -5.526915      -19.213835       -1.510159
 C          -7.625091      -19.933649       -0.187311
 C          -6.412892      -18.901724       -2.726722
 C          -8.579688      -19.455185       -1.291651
 C          -7.800909      -18.417528       -2.180695
 H          -4.547783      -19.619102       -1.883680
 H          -5.245759      -18.401934       -0.906112
 H          -8.077971      -20.829948        0.284576
 H          -7.537743      -19.197466        0.665091
 H          -6.527672      -19.771084       -3.382961
 H          -5.871308      -18.078979       -3.241755
 H          -9.542381      -19.053114       -0.878350
 H          -8.828652      -20.256277       -1.987707
 H          -8.420872      -18.052002       -2.983892
 H          -7.694062      -17.509085       -1.559600
