20
 generated by VMD
 C         -39.865616      -99.388351      -28.578968
 N         -39.070282     -100.041771      -28.026295
 H         -37.441467      -98.791847      -30.345808
 H         -40.581150      -98.838959      -29.249407
 C         -36.417236      -98.502335      -30.603016
 C         -35.801292      -98.561081      -32.122147
 C         -35.557446      -97.923866      -29.531536
 C         -34.483738      -97.843735      -32.473339
 C         -34.350441      -97.149124      -29.987335
 C         -33.587193      -97.661102      -31.204708
 H         -36.660172      -98.155502      -32.624699
 H         -35.779079      -99.588051      -32.392593
 H         -36.094158      -97.342468      -28.810638
 H         -35.273327      -98.854553      -29.050688
 H         -34.771191      -96.867859      -32.853725
 H         -33.946030      -98.295120      -33.314026
 H         -33.602867      -96.887817      -29.280153
 H         -34.772243      -96.154953      -30.252762
 H         -32.730938      -97.079315      -31.554045
 H         -33.068405      -98.641945      -30.923122
