20
 generated by VMD
 C         -49.967300     -129.069366      -42.982525
 N         -50.674049     -128.515701      -43.704510
 H         -48.526253     -127.949310      -39.602173
 H         -49.421658     -129.531815      -42.168865
 C         -47.743816     -128.053207      -40.338398
 C         -46.623276     -129.073715      -39.971294
 C         -47.411377     -126.821152      -41.116478
 C         -45.522274     -129.166428      -41.001316
 C         -46.311256     -126.963081      -42.127319
 C         -45.173615     -127.881447      -41.672031
 H         -47.021873     -130.033203      -39.925056
 H         -46.188751     -128.841705      -38.944611
 H         -48.290203     -126.456848      -41.642170
 H         -47.079643     -126.143494      -40.179630
 H         -45.586121     -130.027969      -41.775040
 H         -44.530350     -129.627808      -40.662052
 H         -45.778736     -125.986992      -42.405773
 H         -46.619984     -127.331779      -43.150578
 H         -44.408569     -128.092117      -42.459370
 H         -44.680210     -127.339050      -40.865368
