20
 generated by VMD
 C         -38.033966     -107.959305      -36.988438
 N         -38.520821     -108.246094      -38.026283
 H         -41.164070     -108.718918      -35.715019
 H         -37.770100     -107.728165      -35.953350
 C         -41.183880     -109.427444      -34.821426
 C         -40.261105     -110.736244      -34.997143
 C         -42.425228     -109.775436      -33.947308
 C         -40.046463     -111.524048      -33.683880
 C         -42.209091     -110.707344      -32.662739
 C         -41.421738     -111.871300      -33.101879
 H         -39.257450     -110.523010      -35.420452
 H         -40.798649     -111.475899      -35.660690
 H         -42.872116     -108.802719      -33.571735
 H         -43.116951     -110.217506      -34.647793
 H         -39.568684     -110.940712      -32.964989
 H         -39.450512     -112.451736      -33.998764
 H         -43.214302     -111.084007      -32.206474
 H         -41.762775     -109.978806      -31.911194
 H         -41.284908     -112.693565      -32.335922
 H         -41.997021     -112.408020      -33.747684
