20
 generated by VMD
 C         -41.754189     -102.230057      -34.010342
 N         -40.813099     -101.848488      -34.625660
 H         -39.441238     -104.023849      -32.434353
 H         -42.569798     -102.740791      -33.405846
 C         -38.391510     -103.899727      -32.144314
 C         -37.284397     -103.599480      -33.182018
 C         -38.078648     -104.831032      -30.965475
 C         -35.996864     -103.322510      -32.310852
 C         -36.821804     -104.392052      -30.163792
 C         -35.695198     -104.145653      -31.090277
 H         -37.534096     -102.714027      -33.781879
 H         -36.896263     -104.402115      -33.814964
 H         -38.881802     -104.845650      -30.304670
 H         -37.894535     -105.908409      -31.288181
 H         -36.015739     -102.255852      -32.170368
 H         -35.247307     -103.473465      -33.063496
 H         -36.621906     -105.064499      -29.339743
 H         -37.064831     -103.396858      -29.736023
 H         -34.861092     -103.755920      -30.562498
 H         -35.347824     -105.098015      -31.463097
