20
 generated by VMD
 C         -50.883320     -130.825623      -46.413292
 N         -50.246883     -130.860199      -47.378963
 H         -48.153877     -132.031998      -44.306042
 H         -50.996143     -130.936188      -45.381168
 C         -48.418674     -132.345596      -43.341091
 C         -49.024799     -133.701233      -43.088558
 C         -48.391235     -131.367294      -42.179638
 C         -48.468494     -134.329010      -41.851868
 C         -47.844025     -132.044159      -40.893734
 C         -48.558918     -133.363815      -40.638901
 H         -48.755016     -134.384445      -43.866970
 H         -50.159012     -133.677826      -42.989681
 H         -47.711945     -130.402176      -42.469139
 H         -49.385830     -130.994446      -41.949657
 H         -47.380550     -134.518799      -41.876938
 H         -49.026695     -135.282898      -41.622166
 H         -47.907852     -131.472992      -39.970215
 H         -46.702492     -132.184875      -41.101517
 H         -48.082485     -133.844559      -39.746250
 H         -49.613865     -133.295105      -40.452908
