20
 generated by VMD
 C         -49.556038     -131.812820      -46.447029
 N         -50.202778     -132.469254      -47.244587
 H         -47.724251     -133.528320      -44.291733
 H         -48.877911     -131.074280      -45.942146
 C         -48.666451     -133.776230      -43.824200
 C         -49.228710     -135.135559      -44.026772
 C         -49.035885     -132.890106      -42.637833
 C         -49.618023     -135.840149      -42.650097
 C         -49.501102     -133.636658      -41.494461
 C         -50.305553     -134.883911      -41.745586
 H         -48.472893     -135.747513      -44.449368
 H         -50.094135     -135.235825      -44.768383
 H         -48.234257     -132.260498      -42.475407
 H         -49.857716     -132.209259      -42.933556
 H         -48.638737     -136.131897      -42.153881
 H         -50.240204     -136.710220      -42.954456
 H         -50.082771     -132.994019      -40.692104
 H         -48.513832     -133.867371      -41.079449
 H         -50.669075     -135.398666      -40.790714
 H         -51.398087     -134.605606      -42.179020
