20
 generated by VMD
 C         -59.407818     -169.022324      -55.863922
 N         -59.514339     -168.615112      -54.733974
 H         -62.884914     -170.028778      -55.959450
 H         -59.194576     -169.328064      -56.889172
 C         -63.011414     -169.072937      -56.476620
 C         -62.801594     -168.709427      -57.954681
 C         -63.161629     -167.887146      -55.599060
 C         -63.690025     -167.619019      -58.493343
 C         -64.186722     -166.778351      -56.214516
 C         -63.553127     -166.364456      -57.585045
 H         -62.993732     -169.620117      -58.496834
 H         -61.694508     -168.404999      -58.170444
 H         -63.569485     -168.152222      -54.705093
 H         -62.190830     -167.498444      -55.354137
 H         -64.762825     -167.971069      -58.625130
 H         -63.389618     -167.459457      -59.585548
 H         -64.102058     -165.892502      -55.536263
 H         -65.155037     -167.240860      -56.171139
 H         -64.123436     -165.539062      -58.036301
 H         -62.538349     -166.014404      -57.621758
