20
 generated by VMD
 C         -49.747543     -141.514587      -45.407154
 N         -49.568035     -142.631561      -45.109550
 H         -51.644745     -138.855408      -45.915981
 H         -50.016502     -140.567917      -45.832405
 C         -52.243729     -139.709961      -46.388100
 C         -52.500717     -139.897812      -47.915264
 C         -53.088593     -140.353317      -45.465416
 C         -53.116394     -141.280396      -48.295200
 C         -53.586109     -141.804779      -45.889591
 C         -54.084351     -141.753601      -47.270973
 H         -51.567707     -139.618912      -48.447945
 H         -53.200581     -139.148758      -48.307987
 H         -52.659393     -140.590088      -44.482689
 H         -54.035576     -139.793930      -45.398163
 H         -52.460480     -142.052170      -48.523239
 H         -53.502663     -141.203430      -49.245155
 H         -54.413147     -142.296326      -45.205162
 H         -52.736076     -142.548782      -45.782909
 H         -54.473419     -142.626617      -47.667747
 H         -54.966576     -141.153259      -47.263386
