20
 generated by VMD
 C         -69.789505     -180.750839      -61.307354
 N         -69.120209     -180.566925      -62.238873
 H         -66.527710     -180.009125      -59.221348
 H         -70.502815     -180.844284      -60.513252
 C         -66.161568     -179.136047      -59.680981
 C         -65.675720     -179.336700      -61.038628
 C         -65.841690     -178.000641      -58.811695
 C         -65.134354     -178.080750      -61.793224
 C         -65.571884     -176.748871      -59.639416
 C         -64.663086     -176.902954      -60.840759
 H         -66.384888     -179.749298      -61.720322
 H         -64.730156     -179.863068      -60.838081
 H         -66.718483     -177.926849      -58.194492
 H         -65.060898     -178.445526      -58.153709
 H         -65.841347     -177.723007      -62.560883
 H         -64.314064     -178.268112      -62.491879
 H         -65.125870     -175.891052      -59.130951
 H         -66.560753     -176.430374      -59.950405
 H         -64.569473     -176.063004      -61.442379
 H         -63.709148     -177.367737      -60.544765
