20
 generated by VMD
 C         -38.735401     -108.554321      -36.794018
 N         -37.622791     -108.805038      -36.980022
 H         -41.713657     -109.690155      -36.219406
 H         -39.686863     -108.210403      -36.429653
 C         -41.463192     -110.104866      -35.316475
 C         -40.960808     -111.426888      -35.629196
 C         -42.529869     -110.043312      -34.269058
 C         -40.532726     -112.210358      -34.416573
 C         -42.039310     -110.677231      -32.985847
 C         -41.583241     -112.146622      -33.215717
 H         -39.998787     -111.265404      -36.115150
 H         -41.694530     -112.083519      -36.171349
 H         -42.876312     -109.042175      -34.008869
 H         -43.410950     -110.491501      -34.560879
 H         -39.621483     -111.670906      -34.239742
 H         -40.294827     -113.341133      -34.615677
 H         -42.789894     -110.468811      -32.229366
 H         -41.205078     -110.201622      -32.624172
 H         -41.103214     -112.597954      -32.223301
 H         -42.414391     -112.875488      -33.373280
