20
 generated by VMD
 C          -6.865235      -22.814394        2.167339
 N          -6.072796      -22.803787        2.975665
 H          -5.985254      -20.426220       -0.143865
 H          -7.401780      -21.225876       -0.408568
 C          -6.620510      -20.703871       -1.000338
 C          -6.055311      -21.716412       -1.957211
 C          -7.203289      -19.463596       -1.702402
 C          -7.029758      -22.080608       -3.070326
 C          -8.230644      -19.856773       -2.819090
 C          -7.611296      -20.839022       -3.848829
 H          -5.677248      -22.618053       -1.387043
 H          -5.227036      -21.279776       -2.448383
 H          -7.697674      -18.868519       -0.943838
 H          -6.347412      -19.010294       -2.115148
 H          -7.881247      -22.522961       -2.592073
 H          -6.578842      -22.793961       -3.733927
 H          -8.576514      -18.991682       -3.352660
 H          -9.089109      -20.274096       -2.295211
 H          -8.280057      -21.183498       -4.627253
 H          -6.781816      -20.313601       -4.269875
