20
 generated by VMD
 C         -69.571068     -181.220490      -61.194870
 N         -69.336060     -180.222641      -61.737171
 H         -67.350624     -179.030975      -59.635040
 H         -69.641090     -182.188126      -60.681973
 C         -66.313637     -178.665863      -59.825832
 C         -65.539574     -179.017044      -61.096863
 C         -65.665764     -177.809769      -58.833458
 C         -65.164055     -177.713196      -61.751820
 C         -65.227707     -176.486404      -59.451847
 C         -64.503738     -176.644135      -60.848072
 H         -66.292107     -179.541153      -61.683815
 H         -64.880745     -179.800201      -60.817326
 H         -66.340462     -177.496170      -57.980511
 H         -64.783768     -178.279022      -58.408669
 H         -66.101730     -177.327423      -62.256607
 H         -64.440727     -177.978622      -62.553085
 H         -64.387665     -176.122742      -58.876366
 H         -66.082390     -175.835159      -59.342155
 H         -64.301674     -175.635361      -61.214283
 H         -63.601803     -177.012085      -60.597721
