20
 generated by VMD
 C         -21.720995      -66.294930      -16.610292
 N         -20.858320      -66.827324      -16.015083
 H         -24.289070      -64.158875      -18.524181
 H         -22.389757      -65.942513      -17.460482
 C         -24.455872      -65.281487      -18.571430
 C         -24.415874      -65.720581      -20.020506
 C         -25.520002      -65.866287      -17.780807
 C         -24.283800      -67.260429      -20.042368
 C         -25.789062      -67.435768      -17.994135
 C         -25.487656      -67.924789      -19.404890
 H         -23.606045      -65.080421      -20.639685
 H         -25.330793      -65.451630      -20.529825
 H         -25.196363      -65.734131      -16.817678
 H         -26.437529      -65.332054      -17.971983
 H         -23.364779      -67.742386      -19.675329
 H         -24.346746      -67.501862      -21.166134
 H         -26.791973      -67.771767      -17.938782
 H         -25.182497      -67.967041      -17.199114
 H         -25.320215      -68.998436      -19.395180
 H         -26.372572      -67.753670      -20.021696
