20
 generated by VMD
 C         -39.173828     -116.181099      -35.212215
 N         -39.432190     -115.421425      -34.401592
 H         -41.406693     -115.723434      -37.449108
 H         -38.975948     -116.973358      -35.958424
 C         -42.422985     -115.876305      -37.492661
 C         -43.030354     -115.627930      -38.785793
 C         -43.359062     -115.711281      -36.342964
 C         -44.372578     -116.388306      -38.960831
 C         -44.683720     -116.355576      -36.584766
 C         -45.327477     -115.985054      -37.885323
 H         -42.408333     -115.921059      -39.638496
 H         -43.093346     -114.559608      -38.810356
 H         -42.820843     -115.930229      -35.369129
 H         -43.425858     -114.645042      -36.146156
 H         -44.006264     -117.412033      -38.880627
 H         -44.830685     -116.261383      -39.993294
 H         -45.338036     -116.095711      -35.719990
 H         -44.687832     -117.473328      -36.505371
 H         -46.186584     -116.717125      -38.046970
 H         -45.597950     -114.916946      -38.031921
