20
 generated by VMD
 C         -30.271223      -92.644478      -25.780739
 N         -29.567694      -92.402748      -24.895002
 H         -32.567825      -89.668297      -26.610989
 H         -30.830288      -92.881454      -26.649118
 C         -33.244900      -90.118385      -27.323589
 C         -34.054066      -91.327522      -27.059172
 C         -33.468906      -89.298309      -28.544298
 C         -35.385540      -91.238068      -27.844643
 C         -34.788246      -89.386574      -29.213146
 C         -35.284534      -90.838623      -29.278212
 H         -34.245403      -91.348419      -25.962940
 H         -33.508312      -92.286919      -27.367886
 H         -33.312778      -88.163239      -28.370136
 H         -32.671421      -89.653999      -29.278576
 H         -35.924511      -90.597328      -27.186472
 H         -35.823441      -92.237709      -27.822084
 H         -34.742657      -88.812744      -30.136589
 H         -35.517391      -88.799911      -28.617052
 H         -36.145897      -91.114899      -29.877123
 H         -34.445255      -91.277634      -29.734329
