20
 generated by VMD
 C         -61.341431     -172.328033      -55.013096
 N         -60.404724     -173.039276      -55.105011
 H         -62.390778     -170.701675      -58.219986
 H         -62.049973     -171.530014      -55.077065
 C         -62.952374     -169.999939      -57.669430
 C         -62.571903     -168.498611      -57.557735
 C         -64.418854     -170.342636      -57.460857
 C         -63.367619     -167.756531      -58.659454
 C         -65.214111     -169.592422      -58.535881
 C         -64.823700     -168.208099      -58.756123
 H         -61.465469     -168.258026      -57.751324
 H         -62.807976     -168.128922      -56.568775
 H         -64.597687     -171.472900      -57.463581
 H         -64.553421     -169.965561      -56.453701
 H         -62.983204     -167.789963      -59.673904
 H         -63.380596     -166.638641      -58.441235
 H         -66.244026     -169.624161      -58.243591
 H         -65.301682     -170.123672      -59.434666
 H         -65.316948     -168.027130      -59.781483
 H         -65.328735     -167.547165      -58.004265
