20
 generated by VMD
 C         -58.441185     -151.245392      -49.434399
 N         -58.698837     -152.095490      -48.693813
 H         -55.459755     -149.861664      -47.709351
 H         -58.114456     -150.425980      -50.019985
 C         -55.129883     -149.437012      -48.698502
 C         -54.344234     -150.473846      -49.456455
 C         -54.940056     -148.038834      -48.941078
 C         -54.123169     -150.108765      -50.974628
 C         -54.887974     -147.744751      -50.373516
 C         -53.801380     -148.655014      -51.112041
 H         -54.891323     -151.413147      -49.349373
 H         -53.319019     -150.370804      -49.031868
 H         -55.946251     -147.580276      -48.669060
 H         -54.135242     -147.592941      -48.278461
 H         -55.062672     -150.415787      -51.408825
 H         -53.254322     -150.709030      -51.358418
 H         -54.584892     -146.822617      -50.616051
 H         -55.946457     -147.767685      -50.808132
 H         -53.907570     -148.460785      -52.210770
 H         -52.804398     -148.354080      -50.840931
