20
 generated by VMD
 C         -58.599644     -161.918396      -56.530941
 N         -57.728970     -161.201096      -56.120426
 H         -59.483112     -164.852066      -55.385994
 H         -59.361141     -162.603180      -56.971100
 C         -60.305725     -164.337341      -54.881115
 C         -59.943745     -163.578217      -53.606747
 C         -61.678131     -164.372101      -55.325359
 C         -60.924141     -162.427444      -53.203445
 C         -62.502083     -163.217682      -54.928658
 C         -62.415833     -162.849121      -53.457615
 H         -58.901245     -163.235352      -53.701820
 H         -59.936832     -164.252182      -52.803509
 H         -61.753963     -164.439835      -56.477615
 H         -62.089893     -165.219620      -54.822842
 H         -60.772320     -161.540649      -53.767448
 H         -60.808174     -162.320755      -52.084732
 H         -63.689869     -163.360367      -55.292778
 H         -62.295189     -162.303787      -55.549927
 H         -63.068520     -161.989426      -53.389793
 H         -62.772343     -163.658432      -52.834377
