20
 generated by VMD
 C          -2.779703      -17.899418        2.764467
 N          -2.277388      -17.393894        1.900774
 H          -5.279135      -18.900028        0.949937
 H          -5.399426      -19.737209       -0.521407
 C          -5.833099      -18.918560        0.034245
 C          -5.719920      -17.626505       -0.769044
 C          -7.264470      -19.372858        0.308787
 C          -6.515648      -17.896374       -2.097667
 C          -8.138152      -19.479256       -0.904407
 C          -7.983877      -18.251007       -1.793672
 H          -4.651260      -17.393072       -1.086162
 H          -6.156162      -16.746181       -0.303668
 H          -7.240188      -20.400270        0.711930
 H          -7.674678      -18.675825        1.079646
 H          -6.012822      -18.766876       -2.540415
 H          -6.482167      -17.040848       -2.713614
 H          -9.165446      -19.603884       -0.539962
 H          -7.824468      -20.354195       -1.481103
 H          -8.588104      -18.349049       -2.699566
 H          -8.382889      -17.375978       -1.275550
