20
 generated by VMD
 C         -32.801750      -96.542221      -25.389402
 N         -32.902699      -96.065994      -24.343370
 H         -34.416748      -93.900627      -27.554028
 H         -32.760208      -96.791504      -26.410666
 C         -34.580002      -93.437164      -28.474508
 C         -35.960503      -93.529861      -29.058559
 C         -33.418369      -93.240982      -29.373890
 C         -36.264206      -92.443069      -30.104450
 C         -33.726368      -92.200661      -30.494310
 C         -35.178112      -92.521919      -31.114103
 H         -36.669571      -93.643341      -28.211475
 H         -35.930893      -94.533409      -29.573936
 H         -32.531906      -92.911644      -28.813738
 H         -33.076324      -94.207314      -29.833002
 H         -36.398029      -91.347382      -29.634748
 H         -37.184120      -92.745224      -30.619608
 H         -33.059010      -92.542831      -31.325130
 H         -33.482895      -91.170609      -30.237234
 H         -35.397194      -91.756760      -31.887049
 H         -35.062771      -93.527542      -31.545021
