20
 generated by VMD
 C         -59.888359     -169.637543      -55.558361
 N         -59.670452     -168.583267      -55.028343
 H         -63.160095     -170.470383      -56.569405
 H         -59.989204     -170.648026      -55.948391
 C         -63.207642     -169.413727      -56.797268
 C         -62.762020     -168.974442      -58.158859
 C         -63.582600     -168.321915      -55.687099
 C         -63.385239     -167.662247      -58.659710
 C         -64.113365     -167.075989      -56.285198
 C         -63.533836     -166.585434      -57.616493
 H         -62.961220     -169.928497      -58.884716
 H         -61.755573     -168.768112      -58.136993
 H         -64.248192     -168.829346      -54.848709
 H         -62.544960     -168.128845      -55.209194
 H         -64.378593     -167.732819      -59.071140
 H         -62.860722     -167.303513      -59.556698
 H         -63.926338     -166.220245      -55.640949
 H         -65.248657     -167.212112      -56.413780
 H         -64.216476     -165.703461      -57.826889
 H         -62.561157     -166.098663      -57.376747
