20
 generated by VMD
 C         -68.129288     -188.203415      -66.576622
 N         -68.836609     -188.687698      -67.382515
 H         -68.329758     -187.050415      -63.547138
 H         -67.444939     -187.810410      -65.765076
 C         -69.293396     -187.577988      -63.630234
 C         -69.348907     -188.985703      -63.091541
 C         -70.433205     -186.642715      -63.422756
 C         -70.778374     -189.667358      -63.440369
 C         -71.756302     -187.306763      -63.765995
 C         -71.950729     -188.737900      -63.121319
 H         -69.230209     -189.166687      -62.087486
 H         -68.537544     -189.410202      -63.556194
 H         -70.431732     -186.403366      -62.350803
 H         -70.283188     -185.808838      -64.212631
 H         -70.905128     -190.667297      -62.916679
 H         -70.792358     -189.955124      -64.464996
 H         -71.769562     -187.519333      -64.808189
 H         -72.485237     -186.543671      -63.437321
 H         -71.846428     -188.470428      -62.065746
 H         -72.914368     -189.012085      -63.277111
