20
 generated by VMD
 C         -23.216255      -53.437801      -13.490381
 N         -23.405386      -52.700443      -14.295953
 H         -20.620672      -55.116077      -13.901707
 H         -22.852749      -53.957035      -12.427121
 C         -19.536026      -54.928276      -14.020136
 C         -19.070053      -53.515057      -13.710835
 C         -18.588150      -55.990627      -14.362762
 C         -17.741983      -53.289768      -13.036611
 C         -17.497368      -55.895588      -13.298966
 C         -16.825144      -54.492146      -13.380136
 H         -19.892252      -53.072475      -13.111058
 H         -19.001856      -53.003292      -14.697555
 H         -19.123707      -57.027451      -14.331228
 H         -18.128828      -55.916115      -15.348059
 H         -17.965105      -53.102482      -11.995454
 H         -17.263277      -52.375717      -13.450337
 H         -16.779295      -56.782089      -13.362148
 H         -17.948387      -55.984489      -12.333046
 H         -16.009880      -54.486534      -12.672650
 H         -16.545893      -54.346958      -14.411730
