20
 generated by VMD
 C         -68.919281     -180.559158      -62.544498
 N         -70.008217     -180.473724      -62.115452
 H         -66.798065     -180.850281      -59.398338
 H         -67.891441     -180.662918      -62.978764
 C         -66.334648     -180.046494      -59.858517
 C         -65.223816     -180.208130      -60.780628
 C         -66.801666     -178.731216      -59.274136
 C         -65.042992     -179.016006      -61.641457
 C         -66.371590     -177.577713      -60.085697
 C         -65.083298     -177.688492      -60.853706
 H         -65.221779     -181.137009      -61.292931
 H         -64.394089     -180.133453      -60.182526
 H         -67.872063     -178.708771      -59.185169
 H         -66.431480     -178.896332      -58.243973
 H         -65.836319     -178.984100      -62.379574
 H         -64.132339     -179.142151      -62.253765
 H         -66.377846     -176.637405      -59.501549
 H         -67.120094     -177.470703      -60.878902
 H         -64.895889     -176.854706      -61.533367
 H         -64.220848     -177.652191      -60.350449
