20
 generated by VMD
 C         -80.026970     -205.454758      -71.392418
 N         -80.126968     -206.586792      -71.527344
 H         -77.369484     -202.978973      -70.300545
 H         -79.879860     -204.455734      -71.533897
 C         -76.352257     -203.300079      -70.270660
 C         -75.145226     -202.457382      -70.471428
 C         -76.036369     -204.818771      -70.119133
 C         -73.804497     -203.137283      -70.518188
 C         -74.796783     -205.020706      -69.234283
 C         -73.512932     -204.206299      -69.521896
 H         -75.181053     -201.637405      -69.690903
 H         -75.343491     -202.080185      -71.428604
 H         -76.821259     -205.369034      -69.696045
 H         -75.821381     -205.164413      -71.098183
 H         -73.009842     -202.409409      -70.163666
 H         -73.380821     -203.448608      -71.498489
 H         -74.541840     -206.144608      -69.217728
 H         -75.135117     -204.730606      -68.226540
 H         -73.153038     -203.784103      -68.480125
 H         -72.639915     -204.911697      -69.769310
