20
 generated by VMD
 C         -20.058956      -52.051804      -10.042672
 N         -20.989733      -51.351353       -9.922372
 H         -18.146170      -49.079079      -10.592231
 H         -19.283663      -52.691769       -9.788027
 C         -17.429155      -49.151764      -11.357222
 C         -16.827953      -50.469784      -11.656233
 C         -17.106936      -47.984352      -12.241438
 C         -16.617149      -50.652027      -13.176785
 C         -17.257954      -48.395466      -13.686932
 C         -16.321304      -49.501293      -14.117532
 H         -17.546484      -51.231743      -11.292727
 H         -15.940246      -50.716213      -11.045810
 H         -17.864304      -47.258766      -12.010349
 H         -16.109947      -47.610203      -12.006237
 H         -17.610556      -51.056412      -13.604251
 H         -15.963390      -51.530857      -13.316907
 H         -17.147215      -47.552280      -14.462454
 H         -18.291328      -48.721760      -13.770889
 H         -16.425901      -49.821377      -15.179840
 H         -15.249931      -49.191139      -13.928006
