20
 generated by VMD
 C         -70.299271     -198.113373      -64.387703
 N         -69.870857     -198.056015      -65.479538
 H         -72.889938     -196.662079      -66.289215
 H         -70.457527     -198.210510      -63.338779
 C         -73.502411     -195.883911      -66.782082
 C         -73.161995     -194.426849      -66.378387
 C         -74.474281     -196.058167      -67.912735
 C         -73.004402     -193.401657      -67.600189
 C         -74.795311     -194.871429      -68.800644
 C         -73.587929     -193.977249      -68.907417
 H         -72.181267     -194.336716      -65.865349
 H         -73.924614     -194.070862      -65.764542
 H         -74.110245     -196.837601      -68.651375
 H         -75.487030     -196.438965      -67.577660
 H         -71.947998     -193.127182      -67.713181
 H         -73.587311     -192.481552      -67.311630
 H         -75.578072     -194.233932      -68.331520
 H         -75.272385     -195.233643      -69.718147
 H         -72.769402     -194.415939      -69.371849
 H         -73.943642     -193.011353      -69.475906
