20
 generated by VMD
 C         -56.317013     -149.923508      -46.561420
 N         -56.864674     -150.546341      -45.791901
 H         -53.404881     -147.804596      -47.619450
 H         -55.867790     -149.336121      -47.384571
 C         -53.631638     -147.380310      -48.554279
 C         -52.971855     -147.722748      -49.863354
 C         -54.614647     -146.286270      -48.527775
 C         -53.899155     -147.749741      -51.134335
 C         -55.343391     -145.873199      -49.886906
 C         -54.467361     -146.182098      -51.148560
 H         -52.540501     -148.783127      -49.795712
 H         -52.071617     -147.181503      -49.946789
 H         -55.279003     -146.562408      -47.655914
 H         -54.104004     -145.374451      -48.100185
 H         -54.789326     -148.400223      -51.089069
 H         -53.384377     -147.990326      -52.050426
 H         -55.719643     -144.934708      -49.778675
 H         -56.246971     -146.574631      -50.049274
 H         -55.110069     -145.897461      -52.010727
 H         -53.643486     -145.502701      -51.255486
