20
 generated by VMD
 C         -27.451847      -84.600998      -26.390926
 N         -27.833229      -85.591980      -26.868280
 H         -31.398369      -84.742966      -25.982512
 H         -27.227940      -83.690994      -25.991060
 C         -31.888443      -85.673286      -25.797197
 C         -32.364693      -85.883446      -24.320297
 C         -32.266415      -86.633904      -26.922256
 C         -33.573486      -86.949425      -24.295370
 C         -33.488396      -87.373802      -26.594231
 C         -33.434132      -88.006035      -25.292997
 H         -32.738327      -85.029213      -23.795330
 H         -31.519419      -86.257492      -23.787258
 H         -32.299675      -86.098755      -27.849127
 H         -31.339649      -87.228271      -27.017538
 H         -34.556580      -86.497070      -24.327469
 H         -33.641850      -87.553444      -23.354778
 H         -33.636623      -88.239960      -27.335052
 H         -34.422581      -86.812798      -26.668957
 H         -34.297241      -88.702896      -25.189180
 H         -32.518856      -88.673943      -25.343328
