20
 generated by VMD
 C         -46.563156     -124.479408      -36.639503
 N         -46.988503     -125.135826      -35.804512
 H         -44.475273     -122.127899      -37.940125
 H         -46.297722     -124.046280      -37.630600
 C         -44.640038     -121.912354      -39.058704
 C         -43.329433     -121.814201      -39.706478
 C         -45.721546     -121.041458      -39.506577
 C         -43.485615     -121.977005      -41.210567
 C         -46.022430     -121.209999      -40.994122
 C         -44.719173     -121.270874      -41.882011
 H         -42.624905     -122.570946      -39.349747
 H         -43.175407     -120.796722      -39.424965
 H         -46.675282     -121.335785      -39.027889
 H         -45.601852     -120.043503      -39.240307
 H         -43.641655     -123.069786      -41.515812
 H         -42.517506     -121.779564      -41.642731
 H         -46.675583     -120.467506      -41.461849
 H         -46.532310     -122.289299      -41.208317
 H         -44.868832     -121.638351      -42.871311
 H         -44.329727     -120.262466      -42.152203
