20
 generated by VMD
 C         -50.577293     -129.380539      -43.166557
 N         -50.363716     -128.303009      -42.859562
 H         -48.474232     -128.264130      -40.456814
 H         -51.005154     -130.362823      -43.238007
 C         -47.514286     -127.784386      -40.435268
 C         -46.391953     -128.640747      -39.940994
 C         -47.143738     -126.442322      -40.920666
 C         -45.366211     -128.779907      -41.015953
 C         -46.169483     -126.609833      -42.090084
 C         -44.952667     -127.368248      -41.539364
 H         -46.753273     -129.603607      -39.703716
 H         -46.053608     -128.099380      -39.011341
 H         -47.984383     -125.974167      -41.391411
 H         -46.580406     -125.865898      -40.073086
 H         -45.706158     -129.397736      -41.874004
 H         -44.551773     -129.466202      -40.739086
 H         -45.961433     -125.659111      -42.621395
 H         -46.748505     -127.088806      -42.892307
 H         -44.300751     -127.441040      -42.461685
 H         -44.419563     -126.774269      -40.767494
