20
 generated by VMD
 C         -73.857361     -201.544586      -65.318901
 N         -72.862099     -201.076126      -65.710976
 H         -74.822014     -198.065445      -66.820854
 H         -74.667114     -202.217270      -65.174805
 C         -74.723198     -197.611465      -67.780327
 C         -74.814346     -196.083115      -67.912018
 C         -74.246910     -198.455307      -68.906654
 C         -73.514824     -195.568161      -68.509552
 C         -73.570168     -197.582687      -70.025681
 C         -72.752914     -196.465622      -69.453232
 H         -75.024841     -195.494537      -67.089760
 H         -75.720123     -195.882187      -68.612946
 H         -73.560822     -199.217484      -68.497620
 H         -75.047928     -199.123383      -69.323425
 H         -72.852676     -195.308945      -67.701828
 H         -73.601204     -194.567886      -69.001297
 H         -74.413963     -197.251419      -70.616966
 H         -72.884903     -198.265137      -70.563065
 H         -71.859344     -196.993271      -68.954224
 H         -72.256233     -195.886841      -70.284645
