20
 generated by VMD
 C         -39.074741      -98.900429      -27.889029
 N         -38.570412      -99.900566      -27.629808
 H         -37.394482      -98.279213      -30.685925
 H         -39.562386      -98.012398      -28.290024
 C         -36.392296      -98.018097      -30.742655
 C         -35.662586      -98.245369      -32.035942
 C         -35.756954      -97.327728      -29.570253
 C         -34.391418      -97.467171      -32.310753
 C         -34.377178      -96.583763      -29.933216
 C         -33.525330      -97.123985      -31.080046
 H         -36.536285      -97.822708      -32.627712
 H         -35.620426      -99.286774      -32.364258
 H         -36.496880      -96.646667      -29.082605
 H         -35.580730      -98.111725      -28.851696
 H         -34.741756      -96.515343      -32.767139
 H         -33.830280      -98.108681      -33.077145
 H         -33.769871      -96.474724      -29.070282
 H         -34.629971      -95.604675      -30.281809
 H         -32.812038      -96.521538      -31.494387
 H         -33.004272      -97.996986      -30.572353
