20
 generated by VMD
 C         -18.197681      -49.286480       -8.283365
 N         -19.156981      -49.849121       -8.321565
 H         -16.379837      -47.708477       -9.875094
 H         -16.935333      -49.075771      -10.827221
 C         -16.573536      -48.013523      -10.910977
 C         -15.373343      -47.903152      -11.844403
 C         -17.744719      -47.216797      -11.555840
 C         -15.718259      -48.629917      -13.083977
 C         -17.990458      -47.565517      -13.020756
 C         -16.758726      -47.853008      -13.856396
 H         -14.480417      -48.326550      -11.417212
 H         -15.181809      -46.822319      -11.981531
 H         -18.666237      -47.537052      -11.049415
 H         -17.534979      -46.169312      -11.424509
 H         -16.180201      -49.567223      -12.749550
 H         -14.870478      -48.781796      -13.783966
 H         -18.594904      -46.799767      -13.407883
 H         -18.655708      -48.496746      -13.098272
 H         -17.037279      -48.482368      -14.765493
 H         -16.390572      -46.867725      -14.271547
