20
 generated by VMD
 C         -51.279747     -127.766838      -41.457897
 N         -51.902061     -128.680069      -41.867596
 H         -47.438988     -128.133774      -40.712860
 H         -50.539074     -127.030556      -41.160667
 C         -46.619091     -127.392517      -40.850521
 C         -45.308414     -127.747581      -40.071342
 C         -46.762680     -125.971031      -41.132915
 C         -44.104939     -127.189720      -40.764412
 C         -45.572979     -125.400162      -41.861557
 C         -44.234810     -125.705933      -41.162174
 H         -45.006859     -128.836243      -39.920738
 H         -45.285786     -127.247520      -39.138134
 H         -47.708336     -125.602188      -41.660675
 H         -46.916073     -125.324104      -40.185368
 H         -43.651379     -127.871452      -41.541393
 H         -43.259125     -127.239243      -40.028046
 H         -45.435471     -124.346909      -42.022846
 H         -45.477894     -125.855667      -42.888840
 H         -43.352432     -125.435913      -41.748375
 H         -44.199371     -125.118164      -40.255424
