20
 generated by VMD
 C          -9.947125      -24.639519        0.417843
 N         -10.414351      -25.116148       -0.468910
 H          -6.394166      -24.615421       -0.854172
 H          -8.127188      -24.206968       -1.130029
 C          -7.126523      -24.339691       -1.659565
 C          -7.108698      -25.478468       -2.669408
 C          -6.820463      -22.957911       -2.173724
 C          -8.017663      -25.051296       -3.862206
 C          -7.738480      -22.560591       -3.404806
 C          -7.763391      -23.704210       -4.471377
 H          -7.577100      -26.410671       -2.135815
 H          -6.078064      -25.639803       -3.022058
 H          -7.008414      -22.290918       -1.328606
 H          -5.764702      -22.931715       -2.515206
 H          -9.052762      -25.030079       -3.463811
 H          -7.851347      -25.797396       -4.684026
 H          -7.341595      -21.621410       -3.826185
 H          -8.783118      -22.341969       -3.059673
 H          -8.479069      -23.557531       -5.250287
 H          -6.811851      -23.787693       -4.972234
