20
 generated by VMD
 C          -2.527501       -8.700074       -0.528075
 N          -1.471602       -8.438889       -0.184822
 H          -3.226020       -9.612760        2.865190
 H          -1.871692      -10.726147        3.430115
 C          -2.922047      -10.622847        3.210112
 C          -3.315167      -11.646996        2.069031
 C          -3.757023      -10.931816        4.443520
 C          -3.317532      -13.139446        2.509429
 C          -3.684485      -12.405064        4.956333
 C          -4.148530      -13.294285        3.796091
 H          -2.706198      -11.474988        1.196942
 H          -4.355019      -11.330729        1.857565
 H          -3.360083      -10.300087        5.199061
 H          -4.781042      -10.589993        4.384674
 H          -2.278624      -13.430543        2.608261
 H          -3.724443      -13.674043        1.664162
 H          -4.203716      -12.532950        5.908198
 H          -2.607278      -12.627406        5.209535
 H          -4.259373      -14.349100        4.091144
 H          -5.124907      -12.940972        3.419326
