20
 generated by VMD
 C         -18.331453      -50.218063       -9.498197
 N         -19.424089      -50.371418       -9.380007
 H         -16.310341      -47.045444      -10.145200
 H         -17.598007      -48.316303      -10.249061
 C         -16.810324      -47.756065      -10.816056
 C         -15.698382      -48.655350      -11.447189
 C         -17.487556      -46.934097      -11.934422
 C         -16.228491      -49.528812      -12.614171
 C         -18.013645      -47.833775      -13.051412
 C         -16.978867      -48.801388      -13.689910
 H         -15.323533      -49.331192      -10.658833
 H         -14.750963      -48.178890      -11.770200
 H         -18.262442      -46.256439      -11.626197
 H         -16.735289      -46.328102      -12.389587
 H         -16.795343      -50.377583      -12.189950
 H         -15.352885      -50.029705      -13.073226
 H         -18.505312      -47.330482      -13.859553
 H         -18.831308      -48.417450      -12.590351
 H         -17.560474      -49.504692      -14.362655
 H         -16.198910      -48.301250      -14.337988
