20
 generated by VMD
 C         -58.352871     -151.132156      -49.322346
 N         -58.573612     -152.053391      -48.685829
 H         -55.729019     -149.906525      -47.962044
 H         -58.262802     -150.309341      -49.954697
 C         -55.118427     -149.473816      -48.740986
 C         -54.272720     -150.499542      -49.443729
 C         -55.051628     -147.956848      -48.910774
 C         -54.159660     -150.090256      -50.907829
 C         -54.831203     -147.699753      -50.426929
 C         -53.884167     -148.580673      -51.091984
 H         -54.874523     -151.411057      -49.593582
 H         -53.265152     -150.699600      -49.015865
 H         -55.940166     -147.547607      -48.454151
 H         -54.127369     -147.719971      -48.467937
 H         -55.092949     -150.311630      -51.482132
 H         -53.410149     -150.741592      -51.326046
 H         -54.607235     -146.514862      -50.626175
 H         -55.740662     -147.764832      -51.026669
 H         -53.724911     -148.356644      -52.159176
 H         -52.893509     -148.426071      -50.620605
