20
 generated by VMD
 C         -60.044323     -157.518585      -55.983334
 N         -60.129089     -157.705231      -57.104698
 H         -60.108307     -157.299118      -52.564949
 H         -59.998642     -157.359207      -54.928223
 C         -59.251366     -157.945343      -52.711155
 C         -57.920589     -157.671280      -52.171978
 C         -59.517693     -159.429657      -53.095043
 C         -57.643669     -158.431015      -50.933941
 C         -59.115627     -160.280502      -51.852345
 C         -57.649319     -160.014130      -51.267097
 H         -57.743282     -156.568344      -51.924866
 H         -57.209026     -157.993958      -52.897766
 H         -60.570889     -159.662323      -53.222820
 H         -59.031570     -159.723770      -54.131054
 H         -58.489864     -158.274246      -50.297211
 H         -56.729950     -158.249817      -50.362286
 H         -59.150646     -161.378738      -51.962830
 H         -59.910645     -159.997925      -51.168133
 H         -57.679451     -160.525696      -50.360199
 H         -56.743912     -160.355667      -51.948654
