20
 generated by VMD
 C         -47.213802     -137.550598      -46.206631
 N         -47.165989     -136.830856      -47.130436
 H         -50.428669     -136.401169      -44.618649
 H         -47.101986     -138.185333      -45.312294
 C         -51.225163     -137.177277      -44.753803
 C         -51.367950     -137.968887      -45.968605
 C         -52.554535     -137.019165      -43.902477
 C         -52.134495     -139.332718      -45.749790
 C         -53.136635     -138.436096      -43.668709
 C         -53.452427     -139.065445      -44.925999
 H         -50.434696     -138.082031      -46.537189
 H         -51.938259     -137.282822      -46.664501
 H         -52.309422     -136.554810      -42.934372
 H         -53.289368     -136.438660      -44.393585
 H         -51.590786     -140.049988      -45.131268
 H         -52.275196     -139.681763      -46.818279
 H         -54.242172     -138.231262      -43.263611
 H         -52.496181     -139.090317      -43.072144
 H         -53.928986     -140.105515      -44.726540
 H         -54.231812     -138.438187      -45.576782
