20
 generated by VMD
 C         -68.006744     -178.863037      -58.192364
 N         -66.977203     -178.400375      -57.881805
 H         -65.673683     -176.577301      -58.925991
 H         -68.912598     -179.382675      -58.494831
 C         -65.235535     -175.794113      -59.477757
 C         -66.050369     -174.684692      -60.127327
 C         -63.761318     -175.890121      -59.784466
 C         -65.400078     -173.336487      -60.122845
 C         -63.191841     -174.419647      -59.669384
 C         -63.910782     -173.497925      -60.599083
 H         -66.991936     -174.545624      -59.690155
 H         -66.201340     -175.036621      -61.219498
 H         -63.177612     -176.590179      -59.249592
 H         -63.640213     -176.201141      -60.838028
 H         -65.460899     -172.905945      -59.085743
 H         -65.952896     -172.563583      -60.795509
 H         -62.094414     -174.630768      -59.861626
 H         -63.286160     -173.989304      -58.686897
 H         -63.596027     -172.489410      -60.623127
 H         -64.000648     -173.999344      -61.588036
