20
 generated by VMD
 C          -6.026587      -22.185293        1.955073
 N          -6.535391      -22.927322        2.611960
 H          -5.360892      -19.238525       -0.625394
 H          -6.486478      -20.363098       -0.076960
 C          -6.148047      -19.908165       -1.076870
 C          -5.670996      -21.099930       -1.968918
 C          -7.155048      -19.023560       -1.879152
 C          -6.907375      -21.927469       -2.475094
 C          -8.366825      -19.880922       -2.377172
 C          -7.910521      -21.063732       -3.233652
 H          -4.987907      -21.735188       -1.343850
 H          -5.215967      -20.708223       -2.827211
 H          -7.574246      -18.259686       -1.290488
 H          -6.703757      -18.551535       -2.691474
 H          -7.410505      -22.428179       -1.645580
 H          -6.559617      -22.748259       -3.077271
 H          -9.048570      -19.298136       -2.994929
 H          -9.054201      -20.209534       -1.558362
 H          -8.803175      -21.625998       -3.526232
 H          -7.438631      -20.632858       -4.119081
