20
 generated by VMD
 C         -56.607040     -150.121292      -47.634178
 N         -57.697601     -150.392563      -48.007816
 H         -53.687683     -148.503113      -47.499760
 H         -55.566875     -149.899384      -47.281628
 C         -53.641277     -147.962830      -48.447437
 C         -53.081959     -148.633530      -49.641190
 C         -54.521339     -146.672806      -48.543015
 C         -54.112080     -148.731064      -50.723370
 C         -55.497234     -146.961853      -49.688717
 C         -55.014423     -147.577011      -50.931976
 H         -52.711060     -149.573624      -49.401180
 H         -52.143581     -148.064774      -50.051476
 H         -55.188351     -146.547607      -47.707504
 H         -53.914841     -145.813370      -48.596054
 H         -54.738213     -149.558151      -50.452385
 H         -53.778381     -149.058853      -51.716549
 H         -55.960732     -145.932724      -49.873837
 H         -56.224873     -147.605804      -49.265305
 H         -55.816029     -147.738953      -51.666382
 H         -54.426239     -146.814743      -51.431526
