20
 generated by VMD
 C         -29.467981      -89.935860      -25.230011
 N         -29.123005      -90.984650      -25.517124
 H         -32.259830      -91.664742      -27.350672
 H         -29.788988      -88.963562      -25.143480
 C         -33.039997      -90.901299      -27.532833
 C         -34.481110      -91.462112      -27.509209
 C         -32.858418      -89.615051      -28.335430
 C         -35.438293      -90.380325      -27.138939
 C         -33.921974      -88.571533      -28.183014
 C         -35.343990      -89.224236      -28.184814
 H         -34.609676      -92.239166      -26.793642
 H         -34.710373      -91.716988      -28.542562
 H         -31.806816      -89.325348      -28.226542
 H         -33.008686      -89.988655      -29.378670
 H         -35.282661      -89.979225      -26.162832
 H         -36.439133      -90.584740      -27.122805
 H         -33.680248      -87.861084      -28.943178
 H         -33.771240      -88.197792      -27.173370
 H         -36.122944      -88.492615      -27.782595
 H         -35.618359      -89.623077      -29.285172
