20
 generated by VMD
 C         -31.379385      -78.396324      -26.314795
 N         -31.431490      -77.938316      -27.358114
 H         -29.252544      -79.650581      -24.439400
 H         -31.257113      -79.079781      -25.459858
 C         -29.105742      -80.342842      -23.504478
 C         -27.651697      -80.482468      -23.210501
 C         -29.996319      -81.508362      -23.291918
 C         -27.432383      -80.925568      -21.824907
 C         -29.788385      -81.990868      -21.859760
 C         -28.281881      -82.288513      -21.609600
 H         -27.093515      -79.584190      -23.279387
 H         -27.247028      -81.130234      -24.002367
 H         -31.021776      -81.281555      -23.259007
 H         -29.820141      -82.284790      -24.101192
 H         -27.777098      -80.170799      -21.125408
 H         -26.393013      -81.106758      -21.668320
 H         -30.231617      -82.963898      -21.674831
 H         -30.382839      -81.271400      -21.181974
 H         -28.111517      -82.796997      -20.594116
 H         -27.874151      -83.023743      -22.359493
