20
 generated by VMD
 C         -51.058899     -130.794785      -46.362732
 N         -50.320717     -130.558319      -47.179131
 H         -48.085453     -131.937424      -44.267174
 H         -51.838032     -130.910919      -45.583878
 C         -48.239155     -132.342056      -43.316647
 C         -48.750893     -133.809875      -43.055939
 C         -48.203629     -131.309128      -42.300125
 C         -48.426113     -134.219757      -41.665676
 C         -47.845623     -131.837769      -40.903660
 C         -48.577797     -133.103439      -40.612976
 H         -48.332378     -134.468842      -43.873615
 H         -49.814220     -133.857208      -43.250328
 H         -47.567665     -130.355377      -42.446186
 H         -49.190063     -130.874176      -42.177166
 H         -47.386360     -134.508255      -41.736195
 H         -48.948292     -135.163345      -41.557899
 H         -48.127201     -131.174484      -40.159908
 H         -46.759789     -132.049210      -40.929993
 H         -48.364868     -133.461365      -39.624340
 H         -49.639797     -132.956207      -40.559921
