20
 generated by VMD
 C          -1.342470      -11.908281        1.525883
 N          -1.038145      -12.453690        0.592002
 H          -3.823886      -13.051181        0.676018
 H          -5.591455      -13.110766        0.667962
 C          -4.670177      -13.640171        1.010704
 C          -4.747025      -13.885127        2.473774
 C          -4.711330      -14.954556        0.182896
 C          -5.840928      -14.820347        2.957797
 C          -5.874782      -15.867594        0.606169
 C          -5.857004      -16.093004        2.141920
 H          -4.898645      -12.924478        2.889997
 H          -3.757828      -14.342511        2.725399
 H          -4.740193      -14.714220       -0.936373
 H          -3.702159      -15.403124        0.428949
 H          -6.824642      -14.313993        2.966209
 H          -5.500293      -15.068590        3.942149
 H          -5.786670      -16.838505        0.111587
 H          -6.857806      -15.481161        0.315944
 H          -6.746612      -16.674046        2.489235
 H          -4.977420      -16.700451        2.404901
