20
 generated by VMD
 C         -72.464081     -198.836685      -65.567787
 N         -73.382195     -199.551361      -65.535492
 H         -70.884178     -195.986710      -67.545273
 H         -71.521202     -198.251724      -65.457817
 C         -71.951233     -195.889175      -67.774734
 C         -72.884087     -194.943802      -67.136528
 C         -72.535080     -196.544495      -69.060112
 C         -74.246445     -194.840927      -67.788223
 C         -73.983887     -197.152069      -68.949097
 C         -74.852905     -196.267593      -67.966400
 H         -72.408882     -194.017410      -67.349152
 H         -73.060463     -195.228378      -66.038765
 H         -72.557716     -195.701996      -69.774826
 H         -71.886696     -197.329346      -69.433784
 H         -74.257034     -194.354263      -68.755272
 H         -74.949532     -194.285736      -67.161476
 H         -74.000237     -198.212875      -68.650085
 H         -74.300865     -197.133560      -69.984436
 H         -75.813515     -196.226776      -68.360504
 H         -74.879448     -196.963974      -66.945534
