20
 generated by VMD
 C         -20.048361      -52.048565      -10.036229
 N         -20.978325      -51.322105       -9.904191
 H         -18.136230      -48.999866      -10.548478
 H         -19.189999      -52.555740       -9.961947
 C         -17.435898      -49.160484      -11.383963
 C         -16.780115      -50.482708      -11.635171
 C         -17.095823      -47.990822      -12.241803
 C         -16.602905      -50.660038      -13.140497
 C         -17.260302      -48.354046      -13.723330
 C         -16.356775      -49.474510      -14.070788
 H         -17.386871      -51.298607      -11.323936
 H         -15.859483      -50.556808      -11.027626
 H         -17.933514      -47.263618      -12.029904
 H         -16.135338      -47.490479      -12.064878
 H         -17.567810      -50.963821      -13.457685
 H         -16.016249      -51.552097      -13.358012
 H         -17.156363      -47.452446      -14.379799
 H         -18.298532      -48.601006      -13.924813
 H         -16.555271      -49.726330      -15.102801
 H         -15.341755      -49.167618      -14.003798
