20
 generated by VMD
 C         -22.833130      -52.447720      -12.110297
 N         -23.348330      -52.464447      -11.046292
 H         -19.996769      -52.876373      -13.821736
 H         -21.863913      -52.218136      -12.968723
 C         -18.856056      -53.015720      -13.871991
 C         -18.118338      -52.079990      -14.763636
 C         -18.215000      -54.068054      -13.079646
 C         -16.633072      -52.138371      -14.560897
 C         -17.073484      -53.478626      -12.260035
 C         -16.254997      -52.389381      -13.108686
 H         -18.462082      -51.056107      -14.575809
 H         -18.347496      -52.349598      -15.762848
 H         -18.960358      -54.498775      -12.430590
 H         -17.848312      -54.871685      -13.760115
 H         -16.199717      -51.147694      -14.836490
 H         -16.250790      -52.904758      -15.305629
 H         -16.445488      -54.311985      -12.025335
 H         -17.377249      -52.949135      -11.324246
 H         -16.234657      -51.458912      -12.553923
 H         -15.279860      -52.873241      -13.125253
