20
 generated by VMD
 C         -38.540047      -98.771675      -27.665855
 N         -38.025703      -99.481483      -26.897596
 H         -37.252911      -97.853806      -30.518061
 H         -38.763096      -98.033463      -28.455740
 C         -36.294510      -97.411858      -30.653269
 C         -35.518085      -97.947495      -31.732601
 C         -35.598930      -96.611855      -29.566784
 C         -34.550682      -96.825630      -32.264656
 C         -34.244228      -95.995911      -29.835318
 C         -33.547600      -96.572563      -31.102270
 H         -36.247963      -98.359589      -32.474731
 H         -34.875015      -98.849312      -31.421663
 H         -36.335415      -95.825287      -29.315973
 H         -35.509037      -97.214676      -28.638475
 H         -34.993141      -95.959221      -32.699341
 H         -34.089302      -97.259171      -33.210976
 H         -33.508587      -96.039711      -28.946178
 H         -34.407524      -94.932854      -30.018251
 H         -32.913567      -95.871597      -31.551947
 H         -32.924259      -97.387611      -30.647106
