20
 generated by VMD
 C         -66.469475     -177.930862      -56.919144
 N         -67.640327     -177.966492      -56.964649
 H         -64.259933     -176.100677      -59.338573
 H         -65.373322     -177.871262      -56.927887
 C         -64.349686     -174.989288      -59.638187
 C         -65.566383     -174.243530      -59.204948
 C         -63.202702     -174.471359      -60.399769
 C         -65.281158     -172.623718      -59.194733
 C         -62.989918     -173.012558      -60.395580
 C         -64.300133     -172.307724      -60.367710
 H         -65.824974     -174.624496      -58.194824
 H         -66.332756     -174.439285      -59.977203
 H         -62.355347     -174.858871      -59.872318
 H         -63.181023     -174.734467      -61.493469
 H         -64.753586     -172.314240      -58.250084
 H         -66.279915     -172.117111      -59.203705
 H         -62.436691     -172.820786      -61.321491
 H         -62.381805     -172.562836      -59.547672
 H         -64.073334     -171.202194      -60.124176
 H         -64.725197     -172.344177      -61.391987
