20
 generated by VMD
 C         -48.578785     -126.285698      -38.687870
 N         -49.177250     -127.277969      -38.537533
 H         -46.198730     -123.519875      -38.315773
 H         -48.045792     -125.314568      -38.699142
 C         -45.597771     -123.431358      -39.322197
 C         -44.365906     -124.380295      -39.616581
 C         -45.643272     -122.145683      -40.019703
 C         -44.274773     -124.550987      -41.075905
 C         -45.483105     -122.405724      -41.530926
 C         -44.082661     -123.225914      -41.804485
 H         -44.544579     -125.429359      -39.203354
 H         -43.568935     -124.097939      -38.969364
 H         -46.702961     -121.784714      -39.933792
 H         -44.937134     -121.415321      -39.542656
 H         -45.208523     -124.957214      -41.489475
 H         -43.489143     -125.234657      -41.149734
 H         -45.370117     -121.406174      -41.949421
 H         -46.303818     -122.941628      -42.107174
 H         -43.963032     -123.426773      -42.862583
 H         -43.190853     -122.619308      -41.499996
