20
 generated by VMD
 C         -68.150742     -185.820557      -67.013794
 N         -68.190742     -184.793716      -67.578354
 H         -69.250298     -188.177002      -64.819862
 H         -68.240601     -186.706192      -66.465958
 C         -69.493126     -187.892639      -63.842403
 C         -69.051941     -186.512177      -63.386799
 C         -70.495415     -188.682098      -63.158504
 C         -69.415184     -186.109421      -61.992058
 C         -70.830780     -188.278564      -61.778957
 C         -70.762245     -186.722885      -61.574459
 H         -69.324478     -185.652878      -64.119331
 H         -67.931854     -186.530914      -63.485535
 H         -71.351173     -188.575974      -63.812733
 H         -70.349792     -189.762192      -63.350384
 H         -69.517548     -185.047913      -61.921078
 H         -68.521393     -186.541031      -61.463394
 H         -70.180244     -188.747665      -60.986195
 H         -71.876076     -188.549362      -61.520290
 H         -71.591492     -186.176926      -62.089355
 H         -70.930313     -186.709656      -60.569401
