20
 generated by VMD
 C          -2.728692       -9.042863        0.125858
 N          -1.655999       -9.274714        0.069087
 H          -2.153734      -11.733472        2.772942
 H          -3.054660      -12.558234        4.161115
 C          -2.980917      -12.467731        3.052923
 C          -2.684466      -13.906287        2.695533
 C          -4.348388      -11.964316        2.515384
 C          -3.842566      -14.859644        3.071652
 C          -5.471122      -12.964549        2.789164
 C          -5.131141      -14.400387        2.367883
 H          -1.825573      -14.330143        3.207723
 H          -2.565294      -14.118402        1.611708
 H          -4.583049      -10.958622        2.972422
 H          -4.236848      -11.740151        1.394941
 H          -3.995130      -14.943547        4.180409
 H          -3.646228      -15.898374        2.670527
 H          -6.386452      -12.653981        2.324915
 H          -5.632857      -12.991823        3.856671
 H          -5.987528      -14.991882        2.601635
 H          -5.032492      -14.457499        1.282202
