20
 generated by VMD
 C         -49.611000     -133.042114      -46.759579
 N         -48.563755     -132.803986      -47.355579
 H         -48.086468     -134.433533      -43.578850
 H         -50.454433     -133.628143      -46.416821
 C         -49.075493     -134.814407      -43.887794
 C         -49.502785     -136.244247      -44.277977
 C         -50.194698     -133.982544      -43.270763
 C         -50.124882     -136.951065      -43.110737
 C         -50.752270     -134.696060      -42.091484
 C         -51.263901     -136.142532      -42.436058
 H         -48.747379     -136.714767      -44.824947
 H         -50.335579     -136.016342      -45.007404
 H         -49.841629     -133.062698      -42.988155
 H         -50.902260     -133.779312      -44.066151
 H         -49.368122     -137.066650      -42.317745
 H         -50.346638     -137.989182      -43.399471
 H         -51.668007     -134.263626      -41.569382
 H         -49.952995     -134.809494      -41.296085
 H         -51.621517     -136.632950      -41.554710
 H         -52.159111     -136.028900      -43.137295
