20
 generated by VMD
 C         -63.481331     -174.746689      -55.839340
 N         -62.384396     -174.575668      -56.173763
 H         -65.448433     -173.351654      -57.621483
 H         -64.525368     -174.892258      -55.651520
 C         -65.106339     -172.539856      -58.227306
 C         -65.361900     -171.105927      -57.860382
 C         -64.623405     -172.675964      -59.664452
 C         -64.078720     -170.144577      -58.130035
 C         -63.443493     -171.675018      -60.077827
 C         -63.645088     -170.243423      -59.590897
 H         -65.606354     -170.990112      -56.894939
 H         -66.213036     -170.644852      -58.540783
 H         -64.249855     -173.636429      -59.850918
 H         -65.450294     -172.658005      -60.284981
 H         -63.276123     -170.514938      -57.345898
 H         -64.325462     -169.051971      -57.861092
 H         -63.160107     -171.834702      -61.152607
 H         -62.479271     -172.029877      -59.598103
 H         -62.692875     -169.760803      -59.717636
 H         -64.346107     -169.731979      -60.330128
