20
 generated by VMD
 C         -67.650482     -191.699265      -66.542709
 N         -66.720474     -191.731873      -67.205124
 H         -70.379204     -189.527374      -66.215225
 H         -68.475014     -191.891632      -65.835495
 C         -71.158264     -189.868149      -65.524063
 C         -71.975876     -191.075089      -65.803505
 C         -71.088623     -189.313034      -64.145378
 C         -73.269447     -191.151154      -64.969643
 C         -72.531799     -189.188324      -63.716225
 C         -73.084404     -190.679565      -63.584888
 H         -71.363998     -191.886810      -65.579529
 H         -72.194565     -191.089554      -66.874863
 H         -70.563820     -190.005447      -63.521126
 H         -70.681602     -188.285461      -64.265297
 H         -73.757622     -192.134140      -65.074387
 H         -74.002159     -190.447205      -65.400230
 H         -73.176208     -188.524033      -64.385895
 H         -72.624039     -188.701096      -62.717155
 H         -72.424103     -191.431717      -63.184307
 H         -74.111252     -190.448639      -63.010036
