20
 generated by VMD
 C         -68.655533     -185.786041      -66.130783
 N         -68.807365     -186.103806      -67.226425
 H         -69.501610     -182.931427      -63.573185
 H         -68.625404     -185.472244      -65.090714
 C         -69.322472     -183.763733      -62.873722
 C         -70.309380     -184.847672      -62.583511
 C         -67.960587     -183.753632      -62.114578
 C         -70.082741     -185.811890      -61.504227
 C         -67.665527     -185.027100      -61.195499
 C         -68.595413     -186.192429      -61.611439
 H         -70.493713     -185.397171      -63.526165
 H         -71.187576     -184.229782      -62.311279
 H         -67.146721     -183.825485      -62.829700
 H         -67.865959     -182.877197      -61.482044
 H         -70.898758     -186.575699      -61.627213
 H         -70.258377     -185.298843      -60.520073
 H         -67.882545     -184.770920      -60.093155
 H         -66.564667     -185.192108      -61.139889
 H         -68.248413     -186.464584      -62.644611
 H         -68.430962     -186.982513      -60.905693
