20
 generated by VMD
 C         -59.761978     -157.245895      -56.934227
 N         -60.852570     -156.917938      -56.957611
 H         -59.875275     -157.192627      -53.150127
 H         -58.763271     -157.585266      -57.085922
 C         -59.235317     -157.765137      -52.454716
 C         -57.892475     -157.226471      -51.980850
 C         -59.318882     -159.305817      -52.476360
 C         -57.315765     -157.988937      -50.760201
 C         -58.636715     -160.122620      -51.316769
 C         -57.259869     -159.473572      -51.002502
 H         -57.926434     -156.067093      -51.764950
 H         -57.333645     -157.334229      -52.921726
 H         -60.299007     -159.689590      -52.491585
 H         -58.861950     -159.448090      -53.487026
 H         -57.912849     -157.815231      -49.856525
 H         -56.241402     -157.643570      -50.507645
 H         -58.548569     -161.207870      -51.667717
 H         -59.429768     -160.051620      -50.489429
 H         -56.853191     -159.986740      -50.207558
 H         -56.511959     -159.677063      -51.906300
