20
 generated by VMD
 C         -63.038002     -174.880707      -54.729198
 N         -62.973595     -174.300995      -55.741383
 H         -63.872345     -173.340378      -58.017292
 H         -63.000755     -175.370834      -53.758160
 C         -64.060669     -172.367981      -58.378906
 C         -64.371162     -171.099503      -57.625889
 C         -64.419189     -172.216904      -59.862366
 C         -63.863724     -169.835297      -58.256161
 C         -64.054039     -170.874329      -60.450741
 C         -64.391533     -169.751526      -59.609421
 H         -63.932594     -171.125732      -56.698730
 H         -65.537514     -170.936432      -57.363850
 H         -63.878971     -172.971100      -60.381500
 H         -65.465797     -172.318848      -59.955486
 H         -62.775547     -169.872894      -58.254295
 H         -63.993439     -168.932724      -57.687710
 H         -64.602379     -170.711212      -61.430737
 H         -62.968884     -170.790588      -60.680496
 H         -63.913651     -168.884399      -60.084694
 H         -65.463936     -169.535919      -59.693390
