20
 generated by VMD
 C         -22.385714      -68.335327      -16.632355
 N         -22.200190      -68.633408      -15.537613
 H         -23.980934      -66.329384      -18.332813
 H         -22.706305      -68.060158      -17.724430
 C         -24.715786      -66.450127      -19.154875
 C         -23.917543      -67.167084      -20.199692
 C         -26.114967      -66.714699      -18.990932
 C         -24.478035      -68.670685      -20.237118
 C         -26.677240      -68.085434      -19.206558
 C         -25.996584      -68.774323      -20.385855
 H         -22.816149      -67.122696      -19.906767
 H         -24.167694      -66.639961      -21.115595
 H         -26.425913      -66.511002      -17.918556
 H         -26.640385      -66.058067      -19.705421
 H         -24.072353      -69.314888      -19.371311
 H         -23.973892      -69.059135      -21.128784
 H         -27.818956      -68.069885      -19.368856
 H         -26.581648      -68.836441      -18.407429
 H         -26.198040      -69.849373      -20.408705
 H         -26.382528      -68.208618      -21.226419
