20
 generated by VMD
 C         -68.951698     -195.704788      -64.814140
 N         -68.602654     -196.748642      -65.115723
 H         -71.557716     -194.442078      -65.992722
 H         -69.349243     -194.787460      -64.501503
 C         -72.164528     -193.931625      -66.706711
 C         -72.201454     -192.452316      -66.757736
 C         -73.137260     -194.627792      -67.555588
 C         -73.582344     -191.926117      -66.378372
 C         -74.535576     -194.189713      -67.075867
 C         -74.650421     -192.630402      -67.165558
 H         -71.793777     -192.087463      -67.665337
 H         -71.566628     -191.913910      -65.967560
 H         -73.088356     -194.426300      -68.697830
 H         -73.003807     -195.807526      -67.476707
 H         -73.686539     -190.847168      -66.519371
 H         -73.704994     -192.021912      -65.313606
 H         -74.716530     -194.527039      -66.066185
 H         -75.327362     -194.628876      -67.744522
 H         -74.446022     -192.368378      -68.238838
 H         -75.644669     -192.213760      -66.946396
