20
 generated by VMD
 C         -70.299171     -182.720840      -65.774384
 N         -71.046364     -183.634445      -65.605865
 H         -67.838165     -181.922638      -63.070869
 H         -69.589149     -181.932037      -65.968536
 C         -67.311089     -181.935226      -62.077400
 C         -67.621315     -183.081253      -61.108559
 C         -67.058464     -180.545029      -61.583042
 C         -66.654114     -182.934952      -59.937744
 C         -65.978455     -180.624771      -60.486153
 C         -66.396660     -181.577927      -59.480766
 H         -67.422256     -184.130569      -61.609535
 H         -68.694717     -182.883209      -60.788658
 H         -66.652039     -179.881210      -62.384754
 H         -67.876106     -180.121490      -61.146904
 H         -65.715546     -183.473541      -60.109280
 H         -66.980812     -183.519852      -59.177361
 H         -65.904083     -179.638412      -59.987480
 H         -65.026619     -180.837418      -60.945850
 H         -65.654816     -181.699600      -58.624619
 H         -67.285248     -181.168900      -59.041695
