20
 generated by VMD
 C          -2.822667       -9.327162        0.053518
 N          -1.766525       -9.076682        0.163764
 H          -2.106202      -11.697623        2.702737
 H          -2.703481      -12.035752        4.177907
 C          -2.880336      -12.338312        3.144815
 C          -2.628670      -13.775505        2.719537
 C          -4.259119      -11.854147        2.647989
 C          -3.761923      -14.731579        2.860922
 C          -5.341177      -12.769119        3.013583
 C          -5.101463      -14.179472        2.426765
 H          -1.753702      -14.081995        3.317154
 H          -2.229757      -13.715604        1.675241
 H          -4.473494      -10.821603        3.098427
 H          -4.204770      -11.737278        1.524210
 H          -3.783588      -14.903909        3.960921
 H          -3.492773      -15.742088        2.413466
 H          -6.265140      -12.407832        2.617663
 H          -5.474360      -12.831384        4.061599
 H          -5.880982      -14.869408        2.678748
 H          -5.057859      -14.077192        1.333470
