20
 generated by VMD
 C         -56.272213     -149.488235      -46.085403
 N         -56.318493     -150.511246      -45.481514
 H         -53.772209     -147.833374      -47.735668
 H         -56.216354     -148.511368      -46.532303
 C         -53.934868     -147.429916      -48.699680
 C         -53.085571     -147.672607      -49.883343
 C         -54.603069     -146.146072      -48.616711
 C         -53.561039     -147.089432      -51.143555
 C         -55.345406     -145.743027      -49.827457
 C         -54.353962     -145.846207      -51.034725
 H         -53.121193     -148.674194      -50.101833
 H         -52.013580     -147.303635      -49.609997
 H         -55.212486     -146.135895      -47.800365
 H         -53.775043     -145.440445      -48.603539
 H         -54.127445     -147.938934      -51.513885
 H         -52.667793     -147.095245      -51.724995
 H         -55.949944     -144.721329      -49.767120
 H         -56.138359     -146.390625      -50.133320
 H         -54.999722     -145.703857      -51.919376
 H         -53.614861     -145.024536      -51.009995
