20
 generated by VMD
 C          -9.124599      -23.841829        2.412352
 N          -8.681751      -24.859814        2.592467
 H          -8.133622      -23.412025       -1.089747
 H          -9.120870      -22.680792       -2.469804
 C          -8.129420      -23.015518       -2.110053
 C          -7.617600      -24.132055       -3.020627
 C          -7.076254      -21.838211       -2.094724
 C          -7.446642      -23.585320       -4.384222
 C          -6.942628      -21.255846       -3.563977
 C          -6.472142      -22.400772       -4.497563
 H          -8.372100      -24.935881       -3.071810
 H          -6.749481      -24.625364       -2.478441
 H          -7.489739      -21.100161       -1.429128
 H          -6.078829      -22.100500       -1.710085
 H          -8.433592      -23.449619       -4.833519
 H          -7.154696      -24.428228       -5.058611
 H          -6.246246      -20.445728       -3.522060
 H          -7.859985      -20.809175       -3.952590
 H          -6.453501      -21.993618       -5.500725
 H          -5.454633      -22.787769       -4.222761
