20
 generated by VMD
 C         -28.812193      -81.433754      -27.698860
 N         -29.704159      -80.694679      -27.450615
 H         -29.313593      -82.345757      -24.053514
 H         -28.045145      -82.091179      -27.628073
 C         -29.607117      -83.366089      -23.955168
 C         -29.877886      -83.814308      -22.584213
 C         -30.227282      -84.060043      -25.102186
 C         -31.348776      -83.986420      -22.307289
 C         -31.719057      -84.271393      -24.876347
 C         -32.000244      -84.897491      -23.473127
 H         -29.604721      -82.967987      -21.874435
 H         -29.367537      -84.724304      -22.195602
 H         -30.088690      -83.459328      -26.074257
 H         -29.634287      -84.970932      -25.342894
 H         -31.994732      -83.069527      -22.329187
 H         -31.470951      -84.479698      -21.434242
 H         -32.002834      -84.769730      -25.735825
 H         -32.147057      -83.227997      -25.008869
 H         -33.128017      -85.157303      -23.286772
 H         -31.524015      -85.895683      -23.421591
