20
 generated by VMD
 C         -59.964073     -152.425064      -51.025700
 N         -60.836796     -153.007889      -51.427990
 H         -56.748417     -152.508072      -48.823799
 H         -59.153809     -151.871338      -50.575356
 C         -56.048717     -152.068085      -49.536629
 C         -54.658302     -152.645889      -49.600121
 C         -56.115356     -150.549637      -49.699005
 C         -53.936119     -152.320496      -50.880165
 C         -55.225796     -150.193130      -50.828827
 C         -53.879364     -150.857986      -50.996418
 H         -54.666946     -153.737259      -49.395908
 H         -54.031155     -152.240158      -48.740715
 H         -57.142365     -150.326050      -49.946091
 H         -55.875046     -150.231598      -48.686047
 H         -54.252331     -152.941101      -51.729187
 H         -52.877281     -152.623123      -50.699780
 H         -55.055470     -149.048035      -50.899399
 H         -55.841228     -150.552979      -51.684311
 H         -53.765560     -150.640732      -52.135887
 H         -53.030373     -150.362625      -50.591660
