20
 generated by VMD
 C         -58.755043     -158.868423      -58.172451
 N         -58.679920     -159.796188      -57.466812
 H         -58.785480     -160.902985      -54.800026
 H         -58.815731     -157.982346      -58.795593
 C         -59.374359     -161.342667      -53.944454
 C         -58.723633     -161.753296      -52.669514
 C         -60.690678     -162.021576      -54.181988
 C         -59.758060     -161.574600      -51.498188
 C         -61.762600     -161.862564      -53.097824
 C         -61.079353     -162.292633      -51.777107
 H         -57.853382     -161.044174      -52.486355
 H         -58.449360     -162.815659      -52.679176
 H         -60.992401     -161.641785      -55.138916
 H         -60.473076     -163.183990      -54.346794
 H         -59.938061     -160.582977      -51.240448
 H         -59.215759     -162.043091      -50.599895
 H         -62.764946     -162.315079      -53.310696
 H         -62.022102     -160.812607      -52.878956
 H         -61.815113     -161.976471      -51.004784
 H         -60.946796     -163.418518      -51.881824
