20
 generated by VMD
 C         -68.226418     -185.770355      -67.020111
 N         -68.114029     -184.747498      -67.533821
 H         -69.251877     -188.198959      -64.821007
 H         -68.309616     -186.715012      -66.582970
 C         -69.457993     -187.863007      -63.860561
 C         -69.071587     -186.537964      -63.463482
 C         -70.474838     -188.657578      -63.150871
 C         -69.407173     -186.135223      -62.056599
 C         -70.830193     -188.233521      -61.676346
 C         -70.767105     -186.696899      -61.524693
 H         -69.547638     -185.795456      -64.234085
 H         -67.979416     -186.445053      -63.578533
 H         -71.413872     -188.691574      -63.730701
 H         -69.990562     -189.703934      -63.014980
 H         -69.406578     -185.038177      -61.895302
 H         -68.609520     -186.400635      -61.290356
 H         -70.034187     -188.757965      -61.047939
 H         -71.866745     -188.634384      -61.460365
 H         -71.608070     -186.434555      -62.094700
 H         -70.848885     -186.265503      -60.567513
