20
 generated by VMD
 C         -11.692176      -25.887400       -0.884173
 N         -11.701564      -25.105755       -0.100853
 H          -7.926815      -26.222521       -1.233962
 H          -9.151560      -25.650974       -2.386922
 C          -8.096816      -25.692015       -2.209594
 C          -7.353306      -26.514118       -3.313503
 C          -7.470355      -24.370335       -2.065898
 C          -7.399183      -25.874254       -4.712212
 C          -7.434123      -23.594122       -3.403121
 C          -6.874283      -24.434746       -4.575655
 H          -7.817493      -27.562279       -3.358727
 H          -6.352696      -26.660427       -2.907447
 H          -8.038143      -23.774998       -1.412239
 H          -6.437626      -24.421844       -1.645983
 H          -8.373294      -25.854410       -5.206779
 H          -6.742777      -26.439537       -5.409727
 H          -6.933237      -22.620674       -3.344509
 H          -8.469288      -23.325722       -3.581963
 H          -7.061057      -23.913216       -5.499591
 H          -5.747484      -24.360249       -4.616313
