20
 generated by VMD
 C         -68.414314     -194.031403      -65.999840
 N         -67.873894     -194.578552      -65.088242
 H         -70.752022     -191.629837      -67.447708
 H         -68.562103     -193.437317      -66.893921
 C         -71.440117     -191.588791      -66.611099
 C         -72.320259     -190.374557      -66.507332
 C         -71.739067     -192.867905      -65.820961
 C         -73.821945     -190.629501      -66.191391
 C         -72.972176     -192.613663      -64.842667
 C         -74.147598     -191.932541      -65.496407
 H         -72.234886     -189.886078      -67.404694
 H         -71.815689     -189.657166      -65.738045
 H         -72.183983     -193.642212      -66.436478
 H         -70.862404     -193.166580      -65.139847
 H         -74.335266     -190.480545      -67.169365
 H         -74.018021     -189.869644      -65.447067
 H         -72.671524     -191.834259      -64.054092
 H         -73.247734     -193.552399      -64.363869
 H         -74.478004     -192.621445      -66.240707
 H         -75.051620     -191.818756      -64.786232
