20
 generated by VMD
 C         -41.756588     -101.463539      -32.746181
 N         -41.465961     -101.591316      -33.886639
 H         -38.708847     -102.895943      -32.551723
 H         -42.061531     -101.270317      -31.753941
 C         -37.836636     -103.222389      -32.046543
 C         -36.670677     -103.068657      -33.066509
 C         -37.529972     -103.655266      -30.663921
 C         -35.391666     -102.552864      -32.352043
 C         -36.424057     -102.693474      -30.092775
 C         -35.125877     -102.994377      -30.938471
 H         -36.836758     -102.404396      -33.908249
 H         -36.372086     -104.022255      -33.451252
 H         -38.354630     -103.579712      -29.990074
 H         -37.002632     -104.650452      -30.527603
 H         -35.447109     -101.423317      -32.250488
 H         -34.459976     -102.771545      -32.975826
 H         -36.194675     -102.869904      -28.923571
 H         -36.831848     -101.706825      -30.151913
 H         -34.283607     -102.334557      -30.656742
 H         -34.894176     -104.049683      -30.863436
