20
 generated by VMD
 C         -79.497803     -206.802322      -74.391182
 N         -80.376572     -207.553574      -74.581444
 H         -76.773941     -207.861984      -73.364166
 H         -78.878609     -206.008484      -74.124474
 C         -76.671867     -207.853592      -72.220253
 C         -75.535103     -207.255829      -71.391327
 C         -77.782982     -208.627304      -71.550407
 C         -75.739304     -207.278229      -69.845718
 C         -77.889389     -208.430801      -70.132652
 C         -76.466194     -208.492584      -69.436371
 H         -75.239006     -206.319229      -71.881584
 H         -74.612991     -207.863312      -71.564491
 H         -78.741264     -208.465378      -72.037132
 H         -77.526947     -209.677216      -71.688568
 H         -76.369812     -206.383942      -69.772942
 H         -74.762947     -207.159973      -69.409218
 H         -78.376671     -209.190659      -69.591896
 H         -78.398994     -207.450211      -69.865463
 H         -76.732529     -208.495483      -68.363091
 H         -75.894371     -209.338928      -69.778259
