20
 generated by VMD
 C         -15.160584      -46.441628       -5.891438
 N         -14.916667      -47.404202       -5.378790
 H         -16.000181      -45.441330       -9.596108
 H         -14.756880      -45.433365      -10.894129
 C         -15.823111      -45.419956      -10.652899
 C         -16.427151      -44.085220      -11.080882
 C         -16.575285      -46.624168      -11.290837
 C         -16.497274      -43.996086      -12.626280
 C         -16.754311      -46.578251      -12.814860
 C         -17.297832      -45.220409      -13.199165
 H         -15.874620      -43.240803      -10.700551
 H         -17.457727      -44.069031      -10.677313
 H         -16.062279      -47.571640      -11.037689
 H         -17.598240      -46.577679      -10.896610
 H         -15.484890      -43.906376      -13.010278
 H         -17.140163      -43.144676      -12.907131
 H         -17.358135      -47.415840      -13.120074
 H         -15.786831      -46.708202      -13.209233
 H         -17.452024      -45.182217      -14.284821
 H         -18.344885      -45.101723      -12.830791
