20
 generated by VMD
 C         -60.265320     -153.325287      -51.883545
 N         -60.287346     -152.313660      -51.337723
 H         -57.234283     -153.832077      -49.971714
 H         -60.239365     -154.259018      -52.452129
 C         -56.433712     -153.136185      -50.169621
 C         -55.199589     -153.404190      -49.441597
 C         -56.697540     -151.851288      -50.808891
 C         -54.018410     -152.858398      -50.201935
 C         -55.555035     -151.326813      -51.620762
 C         -54.301182     -151.407166      -50.683289
 H         -54.867985     -154.487732      -49.202110
 H         -55.268238     -153.034561      -48.368317
 H         -57.548122     -151.928909      -51.458393
 H         -56.873135     -151.147369      -49.967205
 H         -53.751045     -153.455063      -51.088993
 H         -53.179489     -152.857681      -49.565258
 H         -55.573811     -150.309586      -51.913155
 H         -55.356850     -151.999512      -52.561825
 H         -53.451332     -151.118790      -51.224701
 H         -54.316017     -150.759537      -49.716885
