20
 generated by VMD
 C         -40.978157     -100.918289      -32.909767
 N         -41.895229     -101.398842      -32.356384
 H         -38.368305     -103.248344      -32.262802
 H         -39.939285     -100.541199      -33.206364
 C         -37.486267     -102.718399      -31.998314
 C         -36.353458     -102.737701      -32.843452
 C         -37.304516     -102.896408      -30.521196
 C         -35.147255     -101.767174      -32.401955
 C         -36.281563     -101.915588      -30.056040
 C         -34.959347     -102.002113      -30.870558
 H         -36.629581     -102.539383      -33.925728
 H         -35.888073     -103.716927      -32.881008
 H         -38.184235     -102.788986      -29.945749
 H         -36.887741     -103.910324      -30.249298
 H         -35.415291     -100.740402      -32.659332
 H         -34.164894     -102.080170      -32.855190
 H         -36.093605     -102.080505      -28.872974
 H         -36.658157     -100.893730      -30.111883
 H         -34.344620     -101.231468      -30.481028
 H         -34.522266     -102.961601      -30.577944
