20
 generated by VMD
 C         -55.313904     -148.724304      -45.216644
 N         -54.672337     -148.982117      -44.320641
 H         -54.570087     -148.178680      -48.650398
 H         -55.796486     -148.366913      -46.114025
 C         -54.349728     -147.194626      -49.162445
 C         -53.120583     -147.010010      -50.021141
 C         -55.084179     -145.995667      -48.573116
 C         -53.301060     -145.851959      -51.080975
 C         -55.130726     -144.786072      -49.495319
 C         -53.853260     -144.567154      -50.340736
 H         -53.034431     -147.972839      -50.536827
 H         -52.162239     -146.898804      -49.615372
 H         -56.078003     -146.119202      -48.147995
 H         -54.427898     -145.670517      -47.783623
 H         -54.132420     -146.123199      -51.670044
 H         -52.427155     -145.495819      -51.639019
 H         -55.504272     -143.935760      -49.019623
 H         -55.892361     -145.117920      -50.192188
 H         -54.081593     -143.935501      -51.158737
 H         -53.174141     -144.205933      -49.624798
