20
 generated by VMD
 C         -20.493670      -64.496384      -17.158514
 N         -19.939613      -64.809250      -16.177498
 H         -23.823027      -63.534737      -17.813311
 H         -21.124453      -64.329903      -17.987492
 C         -24.315332      -64.541222      -17.985672
 C         -24.849218      -64.667877      -19.378822
 C         -24.941410      -65.337471      -16.974302
 C         -24.657284      -66.212791      -19.802757
 C         -24.939999      -66.862572      -17.208830
 C         -25.171989      -67.200012      -18.702499
 H         -24.291712      -63.975880      -19.961386
 H         -25.919327      -64.404396      -19.445797
 H         -24.482046      -65.091217      -15.981612
 H         -25.870953      -64.982506      -16.671329
 H         -23.591516      -66.225792      -20.018446
 H         -25.214848      -66.272644      -20.770224
 H         -25.744383      -67.260696      -16.602003
 H         -24.003153      -67.340744      -16.837893
 H         -24.824961      -68.179932      -18.903917
 H         -26.262716      -67.326698      -18.715111
