20
 generated by VMD
 C         -23.255997      -55.191303      -15.063947
 N         -22.667742      -54.951984      -16.044073
 H         -20.042723      -54.450123      -15.065317
 H         -23.367458      -55.202465      -13.936499
 C         -19.436075      -55.246620      -14.766526
 C         -18.829363      -55.035748      -13.485115
 C         -19.399208      -56.542233      -15.528032
 C         -19.365845      -56.092548      -12.582829
 C         -19.257528      -57.745770      -14.529742
 C         -18.889605      -57.480011      -13.023375
 H         -19.219963      -54.082592      -13.099367
 H         -17.697416      -55.034367      -13.655462
 H         -20.351986      -56.729744      -15.908822
 H         -18.538862      -56.435375      -16.287113
 H         -20.447830      -56.039310      -12.402770
 H         -18.968985      -55.900120      -11.553585
 H         -18.550838      -58.492443      -14.924929
 H         -20.179960      -58.317410      -14.570050
 H         -19.245464      -58.321850      -12.449635
 H         -17.764767      -57.547565      -12.980329
