20
 generated by VMD
 C         -79.183792     -207.246674      -75.661934
 N         -80.190727     -207.039398      -75.180206
 H         -77.130371     -208.888626      -73.337715
 H         -78.184959     -207.604355      -75.980484
 C         -77.303757     -208.857178      -72.211586
 C         -76.153137     -208.155777      -71.582191
 C         -78.011124     -209.962097      -71.578972
 C         -76.253418     -208.033966      -70.091728
 C         -78.225273     -209.542175      -70.088249
 C         -76.931313     -209.268219      -69.412827
 H         -76.008896     -207.215530      -72.151398
 H         -75.267685     -208.835785      -71.808327
 H         -79.018883     -210.078537      -71.900085
 H         -77.471031     -210.917679      -71.582283
 H         -76.689072     -207.059814      -69.867821
 H         -75.204788     -208.083038      -69.789520
 H         -78.770470     -210.315140      -69.640182
 H         -78.862579     -208.603760      -70.054649
 H         -76.951424     -208.983047      -68.300293
 H         -76.324135     -210.176727      -69.440735
