20
 generated by VMD
 C         -40.498726     -117.000740      -34.459797
 N         -39.462860     -116.476219      -34.649307
 H         -41.465244     -115.860184      -37.855610
 H         -41.303490     -117.615471      -34.263245
 C         -42.495426     -116.245193      -37.944580
 C         -43.136776     -116.040077      -39.322594
 C         -43.356712     -116.134422      -36.677761
 C         -44.470409     -116.855042      -39.388824
 C         -44.713104     -116.820099      -36.822090
 C         -45.394230     -116.651222      -38.156967
 H         -42.329357     -116.231483      -40.062233
 H         -43.414368     -114.971840      -39.427448
 H         -42.744942     -116.554291      -35.780300
 H         -43.475784     -115.027542      -36.600445
 H         -44.286255     -117.887505      -39.382999
 H         -44.927849     -116.698204      -40.372944
 H         -45.369347     -116.295219      -36.068996
 H         -44.455894     -117.908440      -36.459946
 H         -46.340412     -117.182800      -38.427685
 H         -45.872856     -115.641045      -38.250031
