20
 generated by VMD
 C         -19.943127      -50.114777       -9.436448
 N         -19.686155      -51.188499       -9.655678
 H         -16.736662      -48.449524       -9.975692
 H         -19.958017      -48.884048       -9.120944
 C         -16.541164      -48.214901      -11.035578
 C         -15.597525      -49.162689      -11.750566
 C         -17.484076      -47.472458      -11.935173
 C         -16.337801      -49.964561      -12.780194
 C         -17.794128      -48.129974      -13.294644
 C         -16.745657      -49.025631      -13.879875
 H         -15.083857      -49.785702      -11.060451
 H         -14.796191      -48.505123      -12.196242
 H         -18.428564      -47.175430      -11.389735
 H         -16.924238      -46.539570      -12.213389
 H         -17.192585      -50.489227      -12.403116
 H         -15.745982      -50.774624      -13.169169
 H         -18.102554      -47.380741      -13.930494
 H         -18.713264      -48.788551      -13.243467
 H         -17.202221      -49.622696      -14.682870
 H         -15.976608      -48.387009      -14.316384
