20
 generated by VMD
 C         -49.802811     -141.557648      -45.376720
 N         -49.500122     -142.697601      -45.153378
 H         -51.756516     -138.870300      -46.283909
 H         -50.041790     -140.504776      -45.461582
 C         -52.257504     -139.836075      -46.425503
 C         -52.386040     -139.963287      -47.924118
 C         -53.234604     -140.412247      -45.463020
 C         -53.092503     -141.248764      -48.301861
 C         -53.649429     -141.809525      -45.874477
 C         -54.177258     -141.765640      -47.320320
 H         -51.478107     -139.979477      -48.505463
 H         -52.895290     -139.025085      -48.238995
 H         -52.709602     -140.488174      -44.507080
 H         -54.256004     -139.983917      -45.526215
 H         -52.284134     -142.005783      -48.428062
 H         -53.482414     -141.164444      -49.356358
 H         -54.276913     -142.270309      -45.083691
 H         -52.773411     -142.540146      -45.909996
 H         -54.517906     -142.750443      -47.731621
 H         -55.049316     -141.061249      -47.455856
