20
 generated by VMD
 C         -79.761192     -207.010071      -73.536430
 N         -80.007736     -206.004715      -74.027512
 H         -78.228058     -205.221085      -70.531616
 H         -79.693687     -207.984009      -72.973488
 C         -77.216187     -205.413940      -70.240501
 C         -76.181847     -204.591324      -70.878426
 C         -76.833893     -206.677383      -69.573708
 C         -74.774841     -204.797791      -70.307480
 C         -75.430481     -206.906891      -69.213753
 C         -74.368484     -206.281784      -70.179131
 H         -76.440918     -203.552094      -71.058556
 H         -76.087059     -205.002472      -71.838692
 H         -77.488564     -206.917938      -68.722336
 H         -77.124008     -207.252014      -70.404305
 H         -74.575935     -204.416412      -69.289513
 H         -73.950935     -204.399780      -70.910660
 H         -75.228943     -207.936020      -69.187149
 H         -75.364212     -206.387009      -68.209869
 H         -73.363724     -206.252350      -69.756142
 H         -74.372719     -206.913330      -71.080765
