20
 generated by VMD
 C         -30.823071      -78.130371      -25.908705
 N         -31.818777      -77.616188      -25.962435
 H         -29.169744      -77.809151      -22.756416
 H         -29.904871      -78.554459      -26.209797
 C         -28.883055      -78.848579      -22.877199
 C         -27.430622      -79.034576      -23.287994
 C         -29.695644      -80.053368      -22.529963
 C         -26.731493      -79.821220      -22.181759
 C         -29.038401      -80.786079      -21.355684
 C         -27.477928      -81.049126      -21.603746
 H         -26.904528      -78.005882      -23.403284
 H         -27.460543      -79.641991      -24.225861
 H         -30.682249      -79.764198      -22.108667
 H         -29.791029      -80.678040      -23.376251
 H         -26.426414      -79.083290      -21.409765
 H         -25.762280      -80.302467      -22.500660
 H         -29.420952      -81.741081      -21.186569
 H         -29.274179      -80.451935      -20.385908
 H         -27.027090      -81.369400      -20.656485
 H         -27.280186      -81.963272      -22.308954
