20
 generated by VMD
 C         -79.377769     -205.451035      -70.903999
 N         -80.342628     -205.966919      -71.325645
 H         -77.270790     -202.992096      -70.291908
 H         -78.459923     -204.985260      -70.502953
 C         -76.245079     -203.292542      -70.268585
 C         -75.260376     -202.106461      -70.289093
 C         -75.719032     -204.678650      -69.913719
 C         -73.860664     -202.492371      -70.487526
 C         -74.524796     -204.579514      -69.088028
 C         -73.457726     -203.820465      -69.808456
 H         -75.261726     -201.602051      -69.332550
 H         -75.635841     -201.443283      -71.091370
 H         -76.459923     -205.120514      -69.231163
 H         -75.566406     -205.237839      -70.842682
 H         -73.149849     -201.657150      -70.282333
 H         -73.766151     -202.545578      -71.626244
 H         -74.167763     -205.568649      -68.577042
 H         -74.883255     -203.966934      -68.297691
 H         -72.688370     -203.571167      -68.904091
 H         -73.021957     -204.586716      -70.497566
