20
 generated by VMD
 C         -35.392967      -97.529373      -25.527910
 N         -35.118885      -97.703651      -26.643917
 H         -35.775208      -94.475708      -27.768339
 H         -35.504772      -97.435753      -24.493921
 C         -35.355217      -94.447556      -28.784887
 C         -35.896896      -95.390732      -29.799070
 C         -33.948212      -94.030167      -28.992712
 C         -35.621971      -94.884796      -31.250149
 C         -33.821606      -93.458405      -30.377144
 C         -34.305004      -94.374100      -31.582733
 H         -37.011948      -95.545181      -29.694529
 H         -35.451557      -96.410469      -29.832344
 H         -33.674244      -93.217705      -28.279131
 H         -33.396095      -94.924225      -28.749313
 H         -36.365784      -94.192139      -31.684156
 H         -35.641888      -95.815796      -31.853094
 H         -32.715286      -93.303406      -30.538071
 H         -34.312351      -92.515388      -30.467436
 H         -34.335365      -93.827415      -32.463856
 H         -33.508434      -95.195473      -31.594412
