20
 generated by VMD
 C         -60.212868     -157.333725      -56.086643
 N         -59.736115     -158.089462      -56.824272
 H         -60.205452     -157.446045      -52.623177
 H         -60.568462     -156.663147      -55.325855
 C         -59.391113     -158.128952      -52.844818
 C         -58.061245     -157.840225      -52.262455
 C         -59.497036     -159.504852      -53.182953
 C         -57.592449     -158.692169      -51.039242
 C         -59.316101     -160.377579      -51.943817
 C         -57.888565     -160.149796      -51.298325
 H         -58.100971     -156.823547      -51.984520
 H         -57.423565     -157.965027      -53.098103
 H         -60.465839     -159.692581      -53.588486
 H         -58.879654     -159.980789      -54.011211
 H         -58.138885     -158.474152      -50.164150
 H         -56.553455     -158.455109      -50.889030
 H         -59.418522     -161.381943      -52.306686
 H         -59.982201     -160.213501      -51.168423
 H         -57.772778     -160.662064      -50.398121
 H         -57.233688     -160.456207      -52.085903
