20
 generated by VMD
 C         -32.643330      -92.922043      -25.821493
 N         -32.643929      -94.051331      -25.626232
 H         -33.844753      -95.070511      -28.900537
 H         -32.450615      -91.869476      -25.986910
 C         -34.229408      -94.070190      -29.094189
 C         -35.329182      -93.524475      -28.204269
 C         -33.768478      -93.193146      -30.260513
 C         -35.202553      -92.048019      -27.873615
 C         -33.501926      -91.691101      -29.863871
 C         -34.687195      -91.156708      -29.029406
 H         -35.590237      -93.948471      -27.286341
 H         -36.249435      -93.597038      -28.757734
 H         -32.803944      -93.624474      -30.574348
 H         -34.427235      -93.249908      -31.145357
 H         -34.490726      -91.986664      -27.029770
 H         -36.153393      -91.612198      -27.478884
 H         -33.338833      -91.201530      -30.802210
 H         -32.573437      -91.498055      -29.251457
 H         -34.440868      -90.164146      -28.632660
 H         -35.516281      -91.273102      -29.748034
