20
 generated by VMD
 C         -20.490881      -64.511841      -17.126221
 N         -19.796291      -64.592667      -16.194460
 H         -23.594341      -63.681297      -17.903765
 H         -21.151760      -64.139740      -17.816355
 C         -24.241758      -64.538185      -17.932402
 C         -24.888210      -64.729874      -19.249189
 C         -24.911289      -65.256592      -16.922150
 C         -24.686140      -66.094154      -19.786541
 C         -24.931763      -66.743042      -17.260517
 C         -25.212273      -67.144836      -18.704195
 H         -24.484306      -63.991798      -19.977404
 H         -25.992617      -64.551521      -19.000864
 H         -24.290249      -65.066711      -16.036825
 H         -25.990629      -64.796417      -16.800100
 H         -23.593943      -66.352188      -19.975754
 H         -25.249847      -66.312798      -20.727205
 H         -25.593910      -67.229164      -16.511789
 H         -23.927160      -67.169868      -17.059008
 H         -24.569921      -68.026939      -18.985733
 H         -26.273745      -67.546883      -18.912331
