20
 generated by VMD
 C         -26.849762      -71.735413      -17.596930
 N         -26.880033      -72.807655      -17.166155
 H         -24.294514      -69.852928      -18.638350
 H         -26.756760      -70.666718      -17.923365
 C         -24.892553      -70.210197      -19.506807
 C         -24.162590      -71.296997      -20.373697
 C         -25.798580      -69.303459      -20.269171
 C         -25.109791      -72.096344      -21.418724
 C         -26.685617      -70.004486      -21.293764
 C         -25.951590      -71.024986      -22.251762
 H         -23.582483      -71.845886      -19.564344
 H         -23.413555      -70.814621      -21.003555
 H         -26.454109      -68.804878      -19.595783
 H         -25.260923      -68.418106      -20.664515
 H         -25.873674      -72.810684      -20.948555
 H         -24.399002      -72.694824      -22.002697
 H         -27.097651      -69.221619      -21.875069
 H         -27.485268      -70.520599      -20.858036
 H         -26.748461      -71.416435      -22.971628
 H         -25.186165      -70.589203      -23.003553
