20
 generated by VMD
 C         -22.647062      -68.325226      -16.649633
 N         -22.469481      -68.846771      -15.654573
 H         -24.052214      -66.579140      -18.036011
 H         -22.511936      -67.715454      -17.607910
 C         -24.582720      -66.683777      -19.000795
 C         -23.961931      -67.327682      -20.195724
 C         -26.092705      -66.761414      -19.112375
 C         -24.521057      -68.755020      -20.418495
 C         -26.591404      -68.226456      -19.180164
 C         -26.010798      -68.893669      -20.462044
 H         -22.869486      -67.404610      -20.149103
 H         -24.007326      -66.706718      -21.029535
 H         -26.596504      -66.127884      -18.255276
 H         -26.245508      -66.127777      -20.003574
 H         -24.259731      -69.457336      -19.528370
 H         -24.204710      -69.246529      -21.338202
 H         -27.702692      -68.073685      -19.080652
 H         -26.167145      -68.723877      -18.276527
 H         -26.277012      -69.945038      -20.585297
 H         -26.485199      -68.464226      -21.378775
