20
 generated by VMD
 C         -59.495270     -158.306427      -57.442532
 N         -58.399441     -158.454636      -57.924698
 H         -60.057583     -158.576019      -53.847576
 H         -60.446644     -158.169022      -56.938396
 C         -59.828423     -159.423218      -53.138065
 C         -58.610809     -159.306122      -52.363049
 C         -60.673187     -160.652405      -53.279671
 C         -58.509914     -160.438553      -51.352547
 C         -60.609631     -161.558182      -52.025570
 C         -59.156124     -161.749863      -51.675774
 H         -58.575554     -158.253006      -51.987144
 H         -57.768120     -159.350510      -53.056580
 H         -61.602707     -160.175873      -53.371704
 H         -60.463730     -161.304520      -54.203426
 H         -58.973919     -160.008224      -50.342510
 H         -57.529232     -160.641647      -51.047073
 H         -60.980968     -162.570740      -52.195148
 H         -61.269405     -161.166824      -51.294704
 H         -59.005203     -162.566803      -50.904583
 H         -58.571571     -162.112106      -52.511162
