20
 generated by VMD
 C          -1.442435      -17.074728        2.089298
 N          -1.577244      -17.373920        3.159737
 H          -5.197274      -17.109331        0.814307
 H          -5.015222      -18.127794       -0.496881
 C          -5.786474      -17.622562        0.060232
 C          -6.467429      -16.726152       -1.010257
 C          -6.798952      -18.478161        0.710711
 C          -7.030987      -17.536974       -2.120831
 C          -7.582368      -19.309729       -0.362048
 C          -8.087132      -18.499666       -1.624024
 H          -5.755250      -16.020555       -1.366837
 H          -7.222249      -16.124353       -0.442653
 H          -6.348400      -19.235817        1.443515
 H          -7.543377      -17.968065        1.403935
 H          -6.307261      -18.068266       -2.655076
 H          -7.439384      -16.900383       -2.901279
 H          -8.368804      -19.971497        0.009769
 H          -6.828384      -20.045340       -0.790342
 H          -8.449512      -19.158260       -2.462637
 H          -8.945924      -17.893068       -1.330507
