20
 generated by VMD
 C         -59.974026     -156.698792      -55.902721
 N         -60.973938     -156.159164      -56.222767
 H         -59.790470     -157.654816      -53.106834
 H         -59.104523     -157.255035      -55.496452
 C         -58.703571     -157.985626      -52.894302
 C         -57.689701     -156.989410      -52.469753
 C         -58.610268     -159.405624      -52.450203
 C         -57.350475     -157.099396      -51.060032
 C         -58.328896     -159.383865      -50.935669
 C         -57.117580     -158.476242      -50.615669
 H         -57.932751     -155.918381      -52.668468
 H         -56.900753     -157.220673      -53.118237
 H         -59.565735     -159.947968      -52.568489
 H         -57.897522     -160.002945      -53.064991
 H         -58.171093     -156.612579      -50.518547
 H         -56.414574     -156.473038      -50.786812
 H         -58.178013     -160.345169      -50.469742
 H         -59.175156     -159.111923      -50.438728
 H         -57.161182     -158.418503      -49.592571
 H         -56.120602     -158.983734      -50.975281
