20
 generated by VMD
 C          -1.429022      -10.635031        1.396214
 N          -0.912279      -11.654811        1.311363
 H          -3.793341      -13.142131        0.067984
 H          -5.327230      -12.808520        1.072536
 C          -4.574238      -13.563787        0.758442
 C          -3.901897      -13.925138        2.064978
 C          -5.316367      -14.761834        0.216902
 C          -4.905284      -14.459650        3.159545
 C          -6.267749      -15.375829        1.273129
 C          -5.535609      -15.691332        2.552745
 H          -3.289417      -13.055575        2.435239
 H          -3.090103      -14.617371        1.878645
 H          -5.932245      -14.604400       -0.725921
 H          -4.574007      -15.614080        0.039353
 H          -5.545670      -13.705207        3.512433
 H          -4.270921      -14.756890        3.998183
 H          -6.547109      -16.317019        0.790962
 H          -7.189713      -14.822954        1.344939
 H          -6.294906      -16.106934        3.232324
 H          -4.795451      -16.526655        2.368961
