20
 generated by VMD
 C         -55.794994     -149.090286      -45.741867
 N         -55.358730     -149.789642      -44.882149
 H         -54.524910     -148.092896      -48.187469
 H         -56.174046     -148.359848      -46.440872
 C         -54.277088     -147.285248      -48.926350
 C         -53.081734     -147.279160      -49.804859
 C         -54.856136     -146.065826      -48.542561
 C         -53.522053     -146.565933      -51.055882
 C         -55.179138     -145.238754      -49.769157
 C         -54.101124     -145.152802      -50.777344
 H         -52.971581     -148.367249      -50.131516
 H         -52.168297     -147.098282      -49.275635
 H         -55.716480     -146.217010      -47.894554
 H         -54.135277     -145.555786      -48.046246
 H         -54.130661     -147.180649      -51.638935
 H         -52.578999     -146.469513      -51.620255
 H         -55.192932     -144.287659      -49.334114
 H         -56.140347     -145.483032      -50.307968
 H         -54.340885     -144.656860      -51.676922
 H         -53.184238     -144.605606      -50.475601
