20
 generated by VMD
 C         -10.972025      -34.179413       -8.628869
 N         -11.191762      -33.161087       -9.001256
 H         -11.578902      -38.084148       -8.016214
 H         -12.073263      -37.224087       -6.609626
 C         -12.355803      -38.024326       -7.302175
 C         -12.490726      -39.378765       -6.605231
 C         -13.664629      -37.711185       -8.056960
 C         -13.663429      -39.293434       -5.610251
 C         -14.894642      -37.739552       -7.105937
 C         -14.949495      -39.076534       -6.300760
 H         -11.531600      -39.639050       -6.119927
 H         -12.645175      -40.275188       -7.280850
 H         -13.554729      -36.769299       -8.552468
 H         -13.686665      -38.384319       -8.928073
 H         -13.437940      -38.561039       -4.860932
 H         -13.778587      -40.224487       -4.973075
 H         -15.767701      -37.726753       -7.688651
 H         -14.900639      -36.855713       -6.413177
 H         -15.797759      -39.136063       -5.647954
 H         -15.036658      -39.907665       -7.035357
