20
 generated by VMD
 C         -29.404291      -74.433052      -20.142635
 N         -30.533686      -74.780182      -20.267355
 H         -26.099224      -73.758240      -18.835590
 H         -28.477657      -74.094864      -19.876402
 C         -25.872496      -73.699112      -19.892832
 C         -25.609583      -75.008156      -20.728987
 C         -25.661356      -72.323296      -20.441490
 C         -26.084764      -74.760414      -22.271463
 C         -26.053625      -72.244301      -21.877123
 C         -25.649641      -73.416977      -22.790527
 H         -26.196156      -75.845459      -20.296848
 H         -24.461397      -75.320030      -20.814039
 H         -26.250601      -71.571205      -19.810476
 H         -24.592163      -72.169456      -20.232168
 H         -27.205048      -74.769409      -22.422827
 H         -25.743446      -75.646912      -22.811346
 H         -25.715656      -71.324745      -22.232447
 H         -27.137342      -71.986786      -21.973886
 H         -25.995775      -73.191055      -23.788773
 H         -24.520863      -73.457527      -22.829967
