20
 generated by VMD
 C         -79.024147     -209.413910      -76.367683
 N         -79.610268     -209.000580      -77.323303
 H         -77.949127     -209.153427      -73.107910
 H         -78.495483     -209.582336      -75.445862
 C         -78.029236     -209.904022      -72.328171
 C         -76.915977     -210.231537      -71.264786
 C         -79.050873     -210.952209      -72.679787
 C         -77.507339     -210.979431      -70.081970
 C         -79.568336     -211.481445      -71.355293
 C         -78.469086     -212.079834      -70.476730
 H         -76.352623     -209.321808      -70.936958
 H         -76.042816     -210.879196      -71.706421
 H         -79.935249     -210.412827      -73.125229
 H         -78.738121     -211.753632      -73.335777
 H         -77.911835     -210.226685      -69.388794
 H         -76.693863     -211.442230      -69.497314
 H         -80.050797     -212.451797      -71.566963
 H         -80.144974     -210.750519      -70.834091
 H         -78.692291     -212.698776      -69.618225
 H         -78.022957     -212.721756      -71.213303
