20
 generated by VMD
 C         -49.187263     -133.051544      -47.051720
 N         -48.282490     -133.100296      -47.775658
 H         -48.506733     -134.470047      -43.982746
 H         -50.066715     -132.947250      -46.453876
 C         -49.496513     -134.854965      -43.937168
 C         -49.734768     -136.335037      -44.371990
 C         -50.452145     -134.185913      -43.011154
 C         -50.193432     -137.131134      -43.223400
 C         -50.977249     -135.090302      -41.930214
 C         -51.346199     -136.477402      -42.466770
 H         -48.768913     -136.660355      -44.834908
 H         -50.434261     -136.324432      -45.152256
 H         -49.961937     -133.311142      -42.600170
 H         -51.219841     -133.790512      -43.648003
 H         -49.279846     -137.362350      -42.588150
 H         -50.653782     -138.037857      -43.585205
 H         -51.789776     -134.530731      -41.314533
 H         -50.212811     -135.471420      -41.180992
 H         -51.915878     -137.173996      -41.808956
 H         -52.254940     -136.325684      -43.230488
