20
 generated by VMD
 C         -31.504135      -75.683456      -23.764826
 N         -30.998505      -76.161247      -24.688169
 H         -29.624306      -78.471535      -22.138620
 H         -32.357651      -75.278503      -23.058796
 C         -28.605833      -78.159019      -22.003485
 C         -27.546698      -78.338562      -23.100069
 C         -27.992338      -78.155106      -20.593052
 C         -26.338295      -77.391869      -22.996658
 C         -26.819248      -77.188377      -20.554617
 C         -25.745983      -77.641151      -21.610476
 H         -28.009512      -78.035217      -24.052998
 H         -27.224791      -79.359856      -23.167208
 H         -28.830444      -77.757240      -19.937933
 H         -27.813570      -79.181870      -20.394468
 H         -26.630747      -76.333855      -23.158485
 H         -25.515202      -77.738152      -23.669985
 H         -26.343050      -77.229492      -19.660671
 H         -27.166618      -76.175629      -20.503807
 H         -24.856783      -77.000587      -21.517647
 H         -25.400469      -78.660110      -21.488047
