20
 generated by VMD
 C         -52.564842     -147.085587      -45.351368
 N         -53.558170     -147.373352      -44.825741
 H         -54.750237     -147.190033      -47.959743
 H         -51.630386     -146.757736      -45.725304
 C         -54.493568     -146.268021      -48.446743
 C         -53.310108     -146.251755      -49.387211
 C         -55.276588     -145.134842      -48.112919
 C         -53.427063     -145.016983      -50.338470
 C         -55.246101     -143.941406      -49.101627
 C         -53.781372     -143.739426      -49.584785
 H         -53.342155     -147.170090      -50.065723
 H         -52.412407     -146.234818      -48.810879
 H         -56.386475     -145.526535      -48.025314
 H         -54.999516     -144.653687      -47.187443
 H         -54.404602     -145.311295      -51.003574
 H         -52.450665     -144.960342      -50.944462
 H         -55.422955     -142.965546      -48.546310
 H         -55.860126     -144.067856      -49.898998
 H         -53.677616     -142.817413      -50.163025
 H         -53.236862     -143.604675      -48.686218
