20
 generated by VMD
 C         -47.927845     -134.182709      -47.626171
 N         -48.050262     -133.477295      -48.484493
 H         -49.776428     -134.047668      -44.122669
 H         -47.598309     -134.699707      -46.742672
 C         -50.199387     -135.050781      -43.730736
 C         -50.368412     -136.231674      -44.640095
 C         -51.120247     -134.861023      -42.498734
 C         -50.552780     -137.489288      -43.808647
 C         -51.418655     -136.125854      -41.860397
 C         -51.744175     -137.294281      -42.828842
 H         -49.385170     -136.366852      -45.157845
 H         -51.140285     -136.007523      -45.430771
 H         -50.608776     -134.111404      -41.881035
 H         -52.013668     -134.441818      -42.799278
 H         -49.656956     -137.855804      -43.334915
 H         -50.920605     -138.283859      -44.512642
 H         -52.261520     -136.066681      -41.132530
 H         -50.440964     -136.406723      -41.260349
 H         -51.850655     -138.194733      -42.112904
 H         -52.691799     -137.132233      -43.307899
