20
 generated by VMD
 C         -50.880558     -145.078888      -44.670063
 N         -50.960983     -146.201981      -44.421291
 H         -52.980419     -143.827301      -46.159672
 H         -50.951801     -144.041016      -44.975517
 C         -53.485405     -143.698029      -47.126923
 C         -52.536713     -143.706635      -48.387783
 C         -54.803535     -142.785828      -47.145779
 C         -53.425034     -143.613190      -49.712917
 C         -55.450001     -142.770920      -48.493198
 C         -54.493378     -142.480545      -49.643307
 H         -51.927612     -144.614136      -48.507584
 H         -51.824306     -142.783279      -48.365292
 H         -55.428726     -143.245544      -46.378380
 H         -54.593620     -141.782608      -46.968452
 H         -54.061478     -144.576523      -49.868301
 H         -52.668621     -143.564804      -50.579029
 H         -56.209362     -141.960983      -48.556187
 H         -56.201046     -143.676819      -48.607010
 H         -55.080559     -142.377167      -50.663261
 H         -53.894524     -141.514267      -49.473125
