20
 generated by VMD
 C         -20.505836      -64.503845      -17.013451
 N         -19.631966      -64.334648      -16.269897
 H         -24.222424      -63.327423      -17.591904
 H         -21.376062      -64.425995      -17.763573
 C         -24.417738      -64.355049      -17.964354
 C         -24.772936      -64.618225      -19.329720
 C         -24.794857      -65.337029      -16.888186
 C         -24.668898      -66.088737      -19.667612
 C         -24.695248      -66.836502      -17.261110
 C         -25.424255      -66.932228      -18.580425
 H         -24.128187      -64.073578      -19.992636
 H         -25.822147      -64.233078      -19.445929
 H         -24.202728      -65.163216      -15.889452
 H         -25.851084      -65.125008      -16.477619
 H         -23.559843      -66.341286      -19.717314
 H         -25.131065      -66.190186      -20.730589
 H         -25.159719      -67.501595      -16.521727
 H         -23.606737      -67.165482      -17.371176
 H         -25.202456      -67.953323      -18.792898
 H         -26.578606      -66.782249      -18.521448
