20
 generated by VMD
 C         -14.064281      -28.785828       -7.368733
 N         -13.297806      -28.949535       -8.166179
 H         -11.736372      -30.464287       -4.685659
 H         -10.164733      -29.993916       -3.958956
 C         -10.756516      -30.790155       -4.382469
 C          -9.933633      -31.414488       -5.513524
 C         -10.993774      -31.825037       -3.238366
 C          -8.734351      -32.146378       -4.980057
 C          -9.685929      -32.439754       -2.667198
 C          -8.850695      -33.050842       -3.832981
 H          -9.497917      -30.695078       -6.165485
 H         -10.656223      -32.004791       -6.178447
 H         -11.497663      -31.307791       -2.401382
 H         -11.669967      -32.612442       -3.635075
 H          -8.027181      -31.361328       -4.802006
 H          -8.349040      -32.659687       -5.831707
 H          -9.926173      -33.257912       -1.888925
 H          -9.090534      -31.691883       -2.174993
 H          -7.854219      -33.286488       -3.499739
 H          -9.360867      -33.917755       -4.104848
