20
 generated by VMD
 C         -18.158596      -48.591484       -7.308628
 N         -18.758333      -49.246761       -6.644255
 H         -16.212904      -47.895725      -10.181500
 H         -16.089554      -48.984253      -11.563481
 C         -16.289917      -47.971535      -11.259063
 C         -15.195592      -47.152252      -11.845015
 C         -17.690893      -47.600319      -11.668669
 C         -15.301417      -47.230236      -13.394156
 C         -17.891912      -47.445976      -13.185013
 C         -16.688303      -46.754883      -13.855088
 H         -14.212244      -47.681671      -11.637495
 H         -14.990940      -46.212883      -11.337348
 H         -18.426731      -48.325958      -11.269108
 H         -17.951889      -46.632126      -11.156195
 H         -15.121960      -48.278454      -13.672861
 H         -14.541101      -46.661983      -13.924918
 H         -18.870115      -46.893139      -13.338827
 H         -17.948759      -48.491085      -13.644979
 H         -16.751188      -46.966591      -14.901267
 H         -16.749128      -45.693417      -13.663094
