20
 generated by VMD
 C         -27.893600      -87.548439      -26.991671
 N         -27.978029      -86.836517      -26.027187
 H         -31.267441      -88.809875      -25.495342
 H         -27.858744      -88.085693      -27.863684
 C         -32.274338      -88.655861      -25.879110
 C         -33.443253      -88.818840      -24.946583
 C         -32.583046      -88.629951      -27.397686
 C         -34.472294      -87.703018      -25.395449
 C         -33.633606      -87.608734      -27.687616
 C         -34.821754      -87.810486      -26.873207
 H         -33.032829      -88.624817      -23.931112
 H         -33.856480      -89.771141      -25.183798
 H         -31.547615      -88.569176      -27.836744
 H         -33.023781      -89.611641      -27.600260
 H         -34.008255      -86.749886      -25.217495
 H         -35.249851      -87.703758      -24.608450
 H         -33.978912      -87.713478      -28.654335
 H         -33.496655      -86.544289      -27.609293
 H         -35.627026      -87.073563      -27.045111
 H         -35.246063      -88.881729      -27.066278
