20
 generated by VMD
 C         -58.260029     -167.015991      -55.911301
 N         -57.719204     -167.615540      -55.046757
 H         -60.892635     -166.210693      -54.965668
 H         -58.858990     -166.389420      -56.529404
 C         -61.639957     -165.893112      -55.706467
 C         -61.939499     -166.854797      -56.795925
 C         -62.565048     -164.660934      -55.580425
 C         -63.409966     -167.327515      -56.703281
 C         -64.081161     -165.103729      -55.577644
 C         -64.451881     -166.182938      -56.601379
 H         -61.092106     -167.681122      -56.913658
 H         -61.840553     -166.295029      -57.838280
 H         -62.293995     -163.981064      -54.799252
 H         -62.571449     -164.086349      -56.600151
 H         -63.571033     -167.996246      -55.764038
 H         -63.743046     -167.839783      -57.682549
 H         -64.609581     -164.200134      -55.657944
 H         -64.211426     -165.431610      -54.476940
 H         -65.459938     -166.514160      -56.360458
 H         -64.660461     -165.752625      -57.535706
