20
 generated by VMD
 C         -30.372463      -94.139587      -25.737871
 N         -30.004950      -93.576660      -24.771019
 H         -33.952213      -92.994118      -26.959541
 H         -30.645367      -94.637566      -26.739323
 C         -34.296635      -92.302689      -27.720808
 C         -35.767628      -92.429710      -27.989698
 C         -33.442043      -91.780518      -28.783993
 C         -36.344154      -91.275848      -28.884878
 C         -34.132275      -90.717476      -29.646738
 C         -35.497978      -91.048576      -30.115137
 H         -36.451118      -92.515076      -27.148485
 H         -35.917690      -93.411888      -28.438171
 H         -32.578556      -91.323036      -28.272518
 H         -33.154289      -92.575722      -29.537539
 H         -36.301567      -90.352837      -28.187834
 H         -37.357944      -91.499924      -29.096867
 H         -33.368816      -90.384232      -30.392572
 H         -34.232098      -89.897476      -28.921137
 H         -35.991352      -90.256157      -30.740408
 H         -35.351021      -91.893219      -30.783915
