20
 generated by VMD
 C         -57.677242     -165.540207      -56.539207
 N         -57.793137     -166.691071      -56.238632
 H         -60.574848     -164.987350      -54.421940
 H         -57.604012     -164.438522      -56.760796
 C         -61.543907     -165.231567      -54.830997
 C         -61.882286     -166.577454      -55.265347
 C         -62.291431     -164.106354      -55.422104
 C         -63.330975     -166.822174      -55.441887
 C         -63.697716     -164.468521      -55.697598
 C         -63.900990     -165.802139      -56.483982
 H         -61.426449     -167.225296      -54.431870
 H         -61.373219     -166.584183      -56.274265
 H         -62.204475     -163.211090      -54.845383
 H         -61.704868     -163.892471      -56.303146
 H         -63.940163     -166.843079      -54.540581
 H         -63.436626     -167.848282      -55.846401
 H         -64.111595     -163.646347      -56.535053
 H         -64.361000     -164.442444      -54.750187
 H         -64.962585     -166.109467      -56.663040
 H         -63.368618     -165.925461      -57.473888
