20
 generated by VMD
 C         -38.965317     -115.900452      -35.374603
 N         -39.391529     -115.361839      -34.415436
 H         -41.334362     -115.531540      -37.289516
 H         -38.301075     -116.243027      -36.161995
 C         -42.446529     -115.722580      -37.388805
 C         -42.963509     -115.507309      -38.733936
 C         -43.293587     -115.667641      -36.126324
 C         -44.290264     -116.319351      -38.934509
 C         -44.774593     -116.146057      -36.459557
 C         -45.330494     -115.988266      -37.893295
 H         -42.282768     -115.923058      -39.507736
 H         -43.025375     -114.428474      -38.830280
 H         -42.799847     -116.410370      -35.410316
 H         -43.386208     -114.597183      -35.841030
 H         -44.065296     -117.431839      -38.841091
 H         -44.749332     -116.226318      -39.959061
 H         -45.473507     -115.633331      -35.697540
 H         -44.829483     -117.293228      -36.320530
 H         -46.188858     -116.454750      -37.940331
 H         -45.737782     -114.967255      -37.962605
