20
 generated by VMD
 C         -47.563931     -137.125259      -46.136749
 N         -47.136635     -136.647568      -47.068405
 H         -50.428108     -136.149567      -44.892818
 H         -47.817513     -137.562576      -45.163410
 C         -51.078457     -137.042557      -44.841999
 C         -51.401535     -137.917862      -46.045044
 C         -52.197853     -136.897308      -43.820114
 C         -52.085831     -139.227448      -45.593685
 C         -52.935165     -138.171112      -43.552834
 C         -53.357635     -138.937943      -44.804382
 H         -50.525902     -138.271454      -46.628784
 H         -52.028305     -137.367584      -46.789490
 H         -51.793022     -136.485809      -42.904163
 H         -52.893913     -136.033951      -44.082378
 H         -51.440453     -139.936798      -44.960167
 H         -52.250648     -139.827682      -46.483849
 H         -53.726105     -138.073242      -42.810532
 H         -52.167606     -138.770889      -42.970554
 H         -53.817635     -139.974976      -44.353985
 H         -54.208488     -138.480743      -45.305920
