20
 generated by VMD
 C         -15.458715      -47.628609       -6.242478
 N         -15.619433      -46.617149       -5.778907
 H         -16.517431      -47.221836       -9.945705
 H         -15.207669      -47.088406      -10.937160
 C         -16.253633      -46.784828      -10.897842
 C         -16.452044      -45.323318      -10.861210
 C         -17.123203      -47.412663      -11.991327
 C         -16.181833      -44.587692      -12.176634
 C         -16.895010      -46.576187      -13.288210
 C         -17.095407      -45.050835      -13.285954
 H         -15.887883      -44.936596       -9.991640
 H         -17.476347      -45.089794      -10.621630
 H         -16.795441      -48.423058      -12.143936
 H         -18.163918      -47.403522      -11.670466
 H         -15.175711      -44.777588      -12.549141
 H         -16.300827      -43.545887      -11.936936
 H         -17.650013      -46.890652      -13.991922
 H         -15.836395      -46.773144      -13.687529
 H         -16.701122      -44.613117      -14.256724
 H         -18.153688      -44.827354      -13.034109
