20
 generated by VMD
 C          -1.757488      -16.752279        2.186058
 N          -1.541725      -17.503313        2.986974
 H          -5.146519      -16.756332        0.847363
 H          -4.876842      -17.848827       -0.450852
 C          -5.675292      -17.386387        0.069493
 C          -6.387817      -16.566412       -1.068207
 C          -6.598786      -18.374605        0.752634
 C          -7.120623      -17.468018       -2.070111
 C          -7.338223      -19.248184       -0.288588
 C          -8.083021      -18.430016       -1.332853
 H          -5.685184      -15.957911       -1.620631
 H          -7.118412      -15.877920       -0.554663
 H          -5.942865      -19.038202        1.449312
 H          -7.288660      -17.748724        1.389090
 H          -6.375847      -18.105885       -2.573517
 H          -7.714705      -16.841764       -2.819797
 H          -8.022740      -19.856808        0.287113
 H          -6.569201      -19.858955       -0.772052
 H          -8.507319      -19.111603       -2.087209
 H          -8.866180      -17.846207       -0.899196
