20
 generated by VMD
 C         -12.589297      -26.975113       -2.638235
 N         -12.535274      -27.783407       -1.855380
 H         -10.576192      -26.615088       -4.107100
 H          -9.309139      -26.046600       -5.216012
 C          -9.512101      -26.675909       -4.284484
 C          -8.985229      -28.057459       -4.593324
 C          -8.782258      -25.885067       -3.219166
 C          -7.454803      -28.327209       -4.397597
 C          -7.322726      -26.099205       -3.198690
 C          -6.880379      -27.528900       -3.264077
 H          -9.434094      -28.448772       -5.531738
 H          -9.420115      -28.790483       -3.871200
 H          -9.100302      -24.835527       -3.245591
 H          -9.271557      -26.244219       -2.302510
 H          -6.938433      -28.009958       -5.257483
 H          -7.193825      -29.373816       -4.328680
 H          -6.850613      -25.605408       -2.360999
 H          -6.949584      -25.603443       -4.133894
 H          -5.771859      -27.549635       -3.296844
 H          -7.218548      -27.927067       -2.301298
