20
 generated by VMD
 C         -22.790314      -52.402950      -12.074867
 N         -23.206665      -52.502277      -10.945905
 H         -20.102936      -52.903488      -13.878730
 H         -22.450745      -52.344276      -13.243629
 C         -18.950535      -52.878151      -13.859489
 C         -18.117748      -52.036625      -14.746197
 C         -18.281813      -53.900455      -13.051539
 C         -16.584755      -52.204273      -14.532835
 C         -17.014595      -53.313732      -12.306436
 C         -16.149914      -52.287151      -13.056256
 H         -18.322844      -50.941578      -14.801827
 H         -18.410845      -52.380615      -15.712069
 H         -18.977005      -54.260315      -12.351672
 H         -17.962826      -54.766499      -13.651352
 H         -16.035944      -51.391647      -15.034551
 H         -16.319330      -53.100620      -15.148846
 H         -16.464920      -54.144974      -11.810097
 H         -17.330296      -52.825863      -11.401840
 H         -16.188801      -51.272091      -12.585979
 H         -15.073689      -52.547787      -13.067628
