20
 generated by VMD
 C         -50.508488     -131.860947      -47.106663
 N         -49.938923     -132.387131      -48.052185
 H         -48.721695     -131.409775      -43.598316
 H         -51.030743     -131.692398      -46.185322
 C         -48.696018     -132.311646      -42.975060
 C         -49.418488     -133.519440      -43.640598
 C         -48.551048     -132.242981      -41.528641
 C         -49.223026     -134.817566      -42.805862
 C         -48.467907     -133.539948      -40.769787
 C         -49.362801     -134.626404      -41.294437
 H         -49.038143     -133.719910      -44.712204
 H         -50.498821     -133.205414      -43.710724
 H         -47.662689     -131.597824      -41.146206
 H         -49.401814     -131.661194      -41.238052
 H         -48.226490     -135.235229      -43.023254
 H         -50.019112     -135.550369      -43.081287
 H         -48.616901     -133.179016      -39.798370
 H         -47.410378     -133.880264      -40.962132
 H         -49.124477     -135.657227      -40.847507
 H         -50.430569     -134.652603      -41.085114
