20
 generated by VMD
 C         -32.932720      -96.703285      -25.369295
 N         -32.800556      -96.254395      -24.274845
 H         -34.484402      -93.618217      -27.377617
 H         -32.905880      -97.254578      -26.221128
 C         -34.678116      -93.334641      -28.473083
 C         -36.005878      -93.527252      -29.065454
 C         -33.519733      -93.175186      -29.354353
 C         -36.190517      -92.550583      -30.190004
 C         -33.780655      -92.252197      -30.536695
 C         -35.104546      -92.679947      -31.319889
 H         -36.693657      -93.417526      -28.193451
 H         -36.115654      -94.555038      -29.352827
 H         -32.639706      -92.752151      -28.822643
 H         -33.129539      -94.119843      -29.686636
 H         -36.159355      -91.549698      -29.821392
 H         -37.215611      -92.657555      -30.691536
 H         -32.874512      -92.199951      -31.222731
 H         -33.990871      -91.281349      -30.065998
 H         -35.170017      -91.884300      -31.989870
 H         -34.936729      -93.586540      -31.877808
