20
 generated by VMD
 C         -11.335665      -39.510136       -7.094999
 N         -10.936980      -39.893787       -6.103692
 H         -13.258308      -40.722115       -9.041996
 H         -14.690687      -39.809101       -9.123989
 C         -14.324028      -40.844826       -9.232231
 C         -14.959899      -41.660400       -8.084087
 C         -14.654153      -41.533535      -10.557589
 C         -16.449308      -41.942989       -8.286015
 C         -16.166843      -41.654186      -10.799170
 C         -16.820824      -42.532928       -9.666523
 H         -14.782686      -41.270042       -7.116057
 H         -14.396256      -42.571766       -8.133089
 H         -14.174911      -40.984364      -11.358523
 H         -14.240324      -42.534336      -10.502028
 H         -16.977165      -41.000237       -8.111439
 H         -16.779161      -42.603363       -7.529889
 H         -16.394836      -42.121361      -11.775365
 H         -16.658220      -40.661102      -10.775090
 H         -17.920677      -42.591713       -9.838453
 H         -16.339157      -43.528488       -9.739690
