20
 generated by VMD
 C         -22.655811      -55.342285      -17.223793
 N         -23.119839      -54.475864      -17.820139
 H         -20.034521      -55.780857      -14.476654
 H         -22.637552      -56.242249      -16.794958
 C         -19.967691      -56.912712      -14.317370
 C         -20.686655      -57.514763      -13.126384
 C         -19.090464      -57.742104      -15.093226
 C         -20.905712      -59.018921      -13.238564
 C         -19.416641      -59.257343      -15.033636
 C         -19.716078      -59.790291      -13.646364
 H         -21.637991      -57.022213      -12.943123
 H         -19.970793      -57.479118      -12.252949
 H         -18.979321      -57.537640      -16.198614
 H         -18.129217      -57.537350      -14.557448
 H         -21.730995      -59.139275      -13.985162
 H         -21.293341      -59.510651      -12.294974
 H         -18.472977      -59.658886      -15.381838
 H         -20.182468      -59.576454      -15.772599
 H         -19.979713      -60.819527      -13.703853
 H         -18.797258      -59.599785      -13.046629
