20
 generated by VMD
 C         -58.515377     -158.968124      -58.069481
 N         -59.038082     -159.401291      -57.186039
 H         -58.826809     -160.736496      -54.836575
 H         -58.017178     -158.602905      -58.943501
 C         -59.413811     -161.072144      -53.986801
 C         -58.722115     -161.367813      -52.691376
 C         -60.758827     -161.680984      -54.144592
 C         -59.563557     -161.189987      -51.489704
 C         -61.505482     -161.848038      -52.883900
 C         -60.706112     -162.256912      -51.690968
 H         -57.901524     -160.680847      -52.657696
 H         -58.096451     -162.283813      -52.527489
 H         -61.309879     -161.037003      -54.876633
 H         -60.753193     -162.753616      -54.587406
 H         -60.056629     -160.241760      -51.435051
 H         -58.948185     -161.475632      -50.593330
 H         -62.315994     -162.563049      -53.090965
 H         -61.958038     -160.860657      -52.698151
 H         -61.302727     -162.329208      -50.770607
 H         -60.249973     -163.286987      -51.860271
