20
 generated by VMD
 C         -41.011055     -103.843872      -35.873295
 N         -41.700867     -104.772331      -35.853745
 H         -38.748718     -103.865059      -32.971638
 H         -40.503986     -102.848228      -35.914829
 C         -38.431080     -104.822578      -32.897171
 C         -36.997410     -105.044228      -32.561874
 C         -39.207664     -106.092911      -33.023617
 C         -36.864693     -106.081284      -31.342602
 C         -39.115108     -106.939445      -31.845833
 C         -37.734165     -107.341377      -31.462507
 H         -36.613468     -103.957657      -32.284065
 H         -36.435707     -105.423317      -33.466331
 H         -40.228142     -105.872681      -33.303246
 H         -38.774769     -106.682961      -33.838345
 H         -37.193413     -105.621239      -30.445959
 H         -35.848625     -106.361465      -31.128859
 H         -39.525372     -107.984833      -32.005745
 H         -39.671753     -106.616547      -31.003754
 H         -37.725887     -107.982742      -30.560844
 H         -37.330425     -108.003601      -32.226917
