20
 generated by VMD
 C         -12.693420      -30.116934       -8.324014
 N         -13.546034      -30.712589       -7.915165
 H         -10.898998      -30.583822       -5.037294
 H         -10.724808      -31.451790       -3.501849
 C         -10.801603      -31.572027       -4.637167
 C          -9.511792      -32.096313       -5.069695
 C         -11.952168      -32.568199       -4.808338
 C          -9.149695      -33.433758       -4.368723
 C         -11.638541      -33.902096       -4.087304
 C         -10.338986      -34.452965       -4.606891
 H          -8.629826      -31.429619       -4.863821
 H          -9.448632      -32.233429       -6.126592
 H         -12.915812      -32.168278       -4.498605
 H         -12.103577      -32.771793       -5.873336
 H          -9.073981      -33.233505       -3.313748
 H          -8.155304      -33.785446       -4.633240
 H         -12.457500      -34.616432       -4.143059
 H         -11.557431      -33.633961       -3.012756
 H         -10.189161      -35.420330       -4.146326
 H         -10.414389      -34.711502       -5.658852
