20
 generated by VMD
 C         -36.684540      -98.305046      -26.046585
 N         -37.364052      -98.367523      -26.983923
 H         -36.465492      -96.075462      -28.782219
 H         -36.174698      -98.231377      -25.115705
 C         -35.560093      -95.978600      -29.477802
 C         -35.608833      -96.767570      -30.676146
 C         -34.404167      -95.048851      -29.053740
 C         -35.116245      -95.983528      -31.941854
 C         -33.975105      -94.286903      -30.300835
 C         -33.842106      -95.139992      -31.553581
 H         -36.663563      -97.024895      -30.889715
 H         -35.044003      -97.665337      -30.515749
 H         -34.696426      -94.340340      -28.297647
 H         -33.707775      -95.702911      -28.538845
 H         -35.957405      -95.384155      -32.247169
 H         -34.927380      -96.646378      -32.789242
 H         -33.028519      -93.910522      -30.054794
 H         -34.732983      -93.452888      -30.484581
 H         -33.374531      -94.652367      -32.463718
 H         -33.017498      -95.980293      -31.291321
