20
 generated by VMD
 C         -50.700775     -130.019318      -44.992550
 N         -51.533436     -129.177994      -44.930382
 H         -49.294331     -129.399399      -42.304585
 H         -49.843468     -130.684509      -45.242664
 C         -48.190845     -129.679688      -42.181507
 C         -47.935719     -131.007736      -41.609505
 C         -47.462303     -128.545212      -41.606022
 C         -46.456631     -131.248520      -41.164162
 C         -46.054390     -128.868332      -41.182907
 C         -45.946655     -130.090988      -40.296539
 H         -48.152142     -131.828873      -42.419903
 H         -48.619770     -131.199661      -40.762051
 H         -47.617119     -127.831566      -42.343334
 H         -48.197781     -128.113098      -40.822216
 H         -45.804577     -131.446625      -42.026901
 H         -46.556278     -132.231140      -40.776642
 H         -45.678749     -127.932167      -40.803810
 H         -45.471539     -129.129181      -42.079742
 H         -44.871708     -130.249130      -40.126656
 H         -46.461201     -129.797379      -39.387135
