20
 generated by VMD
 C         -56.192471     -150.145203      -46.960869
 N         -57.087486     -150.368469      -46.209923
 H         -53.503834     -147.786713      -47.569126
 H         -55.341148     -150.128891      -47.624123
 C         -53.844563     -147.526855      -48.577019
 C         -53.141777     -148.047455      -49.701054
 C         -54.451649     -146.178253      -48.632088
 C         -53.828613     -147.835815      -51.028671
 C         -55.350151     -146.174805      -49.757225
 C         -54.716904     -146.579025      -51.077972
 H         -53.111000     -149.151443      -49.551327
 H         -52.051262     -147.612106      -49.715267
 H         -55.104908     -146.193481      -47.732632
 H         -53.567028     -145.460663      -48.526726
 H         -54.506973     -148.607986      -51.328083
 H         -53.074959     -147.739319      -51.862072
 H         -55.946819     -145.178299      -49.722969
 H         -56.152130     -146.800888      -49.663147
 H         -55.580353     -146.681107      -51.766323
 H         -54.048599     -145.747375      -51.438427
