20
 generated by VMD
 C         -13.007865      -28.794626       -6.169449
 N         -13.112220      -28.753277       -7.279783
 H         -12.088438      -30.903526       -4.920923
 H         -10.788238      -29.731977       -4.920899
 C         -11.017299      -30.830414       -4.709398
 C         -10.138472      -31.704334       -5.651064
 C         -10.864107      -31.187990       -3.292648
 C          -8.698708      -31.484453       -5.122422
 C          -9.448968      -31.170431       -2.787992
 C          -8.563689      -32.053745       -3.694110
 H         -10.193609      -31.365404       -6.671097
 H         -10.625072      -32.693989       -5.586911
 H         -11.476758      -30.519545       -2.708373
 H         -11.284016      -32.179733       -3.110672
 H          -8.363793      -30.418983       -5.118890
 H          -8.018517      -32.049057       -5.790879
 H          -9.457812      -31.560886       -1.717337
 H          -9.027082      -30.210070       -2.750066
 H          -7.478324      -32.064796       -3.374481
 H          -8.867519      -33.129658       -3.624487
