20
 generated by VMD
 C         -25.219124      -71.059235      -16.994305
 N         -25.310390      -70.977066      -15.862564
 H         -24.279150      -68.824020      -18.449696
 H         -25.388472      -71.093758      -18.131170
 C         -24.602072      -68.948929      -19.483044
 C         -23.902540      -69.741310      -20.545263
 C         -25.850975      -68.268456      -19.774723
 C         -24.840040      -70.674629      -21.388697
 C         -26.731510      -69.226608      -20.541203
 C         -26.106117      -69.940475      -21.669327
 H         -23.189346      -70.498451      -20.127943
 H         -23.374491      -69.051872      -21.338140
 H         -26.436998      -67.998528      -18.851503
 H         -25.649759      -67.253845      -20.280369
 H         -25.153831      -71.521103      -20.698214
 H         -24.360453      -71.009789      -22.309591
 H         -27.640751      -68.610786      -20.759361
 H         -27.156626      -69.999718      -19.826576
 H         -26.857792      -70.497246      -22.236530
 H         -25.707148      -69.247704      -22.414415
