20
 generated by VMD
 C         -29.552498      -89.797478      -25.342810
 N         -29.135231      -90.879875      -25.580301
 H         -32.266453      -91.744270      -27.477098
 H         -29.837631      -88.791245      -24.924301
 C         -33.017330      -90.970421      -27.643797
 C         -34.465794      -91.382866      -27.415337
 C         -32.769119      -89.609863      -28.313414
 C         -35.406776      -90.218102      -27.085114
 C         -33.919487      -88.637016      -27.958982
 C         -35.289375      -89.204826      -28.212326
 H         -34.576881      -92.011940      -26.562834
 H         -34.813534      -91.804398      -28.410856
 H         -31.800081      -89.362732      -27.817610
 H         -32.635017      -89.675117      -29.411737
 H         -35.239838      -89.801910      -26.134960
 H         -36.387180      -90.412758      -27.004629
 H         -33.711880      -87.856339      -28.647360
 H         -33.767925      -88.272888      -26.955526
 H         -36.041599      -88.415375      -27.998173
 H         -35.328472      -89.635582      -29.293898
