20
 generated by VMD
 C         -18.005777      -48.541843       -7.230130
 N         -17.778297      -48.086617       -6.243460
 H         -16.337759      -48.454937      -10.314721
 H         -15.758438      -48.900024      -12.031236
 C         -16.276470      -48.187489      -11.369362
 C         -15.508675      -46.852402      -11.496183
 C         -17.634684      -47.921730      -11.962797
 C         -15.342327      -46.425858      -12.950570
 C         -17.657558      -47.175377      -13.280601
 C         -16.674007      -46.057110      -13.527493
 H         -14.515755      -47.019455      -11.072783
 H         -15.988645      -45.974331      -10.984546
 H         -18.209223      -48.882824      -12.048620
 H         -18.244062      -47.343979      -11.241188
 H         -14.817364      -47.179863      -13.558728
 H         -14.671316      -45.544636      -12.950768
 H         -18.659134      -46.770100      -13.652010
 H         -17.363710      -47.969795      -13.986035
 H         -16.611809      -45.815296      -14.585691
 H         -17.057352      -45.124809      -13.124377
