20
 generated by VMD
 C         -11.794578      -41.433399       -6.401506
 N         -10.966703      -42.191917       -6.529908
 H         -14.685908      -42.268402       -8.158756
 H         -15.140995      -41.003551       -9.357921
 C         -15.238365      -42.103710       -9.117040
 C         -16.751823      -42.313011       -8.868984
 C         -14.678271      -42.976997      -10.253781
 C         -17.625584      -42.492393      -10.095740
 C         -15.585691      -43.214592      -11.419366
 C         -17.003307      -43.548454      -10.971110
 H         -17.162727      -41.487892       -8.215763
 H         -16.833714      -43.216614       -8.244450
 H         -13.739886      -42.497349      -10.664716
 H         -14.453423      -43.950531       -9.819704
 H         -17.602709      -41.493591      -10.550626
 H         -18.632460      -42.871124       -9.818966
 H         -15.184589      -43.966724      -12.087601
 H         -15.659089      -42.284969      -12.007811
 H         -17.550959      -43.732758      -11.896543
 H         -17.064690      -44.466251      -10.435395
