20
 generated by VMD
 C         -28.505600      -74.073456      -18.705059
 N         -29.366135      -73.558754      -18.163231
 H         -25.813154      -72.562149      -18.966455
 H         -27.572216      -74.528198      -18.931774
 C         -25.559584      -72.333611      -19.954958
 C         -24.779377      -73.342941      -20.703802
 C         -25.789671      -70.982315      -20.461525
 C         -25.507721      -73.436470      -22.043726
 C         -26.238171      -71.066742      -21.953728
 C         -25.415586      -72.114906      -22.653505
 H         -24.848043      -74.430229      -20.315903
 H         -23.730816      -73.140511      -20.818546
 H         -26.628025      -70.454048      -20.015055
 H         -24.872791      -70.380661      -20.366673
 H         -26.494164      -73.852127      -21.879927
 H         -24.978111      -74.131378      -22.702803
 H         -26.100279      -70.052444      -22.344124
 H         -27.255770      -71.420021      -21.927338
 H         -26.005299      -72.293251      -23.685236
 H         -24.401623      -71.806236      -22.953339
