20
 generated by VMD
 C         -68.566544     -193.644028      -64.703400
 N         -68.422424     -194.513138      -65.507301
 H         -70.952698     -193.198853      -67.756165
 H         -68.763458     -192.747589      -64.061867
 C         -71.748940     -192.869370      -67.094299
 C         -71.590500     -191.565353      -66.349648
 C         -73.042915     -193.586014      -67.171692
 C         -72.996735     -190.997604      -66.012566
 C         -74.016655     -193.379013      -65.941841
 C         -73.849258     -192.049164      -65.285515
 H         -71.025146     -190.826447      -67.081314
 H         -71.024422     -191.794952      -65.454620
 H         -73.631470     -193.123215      -68.016335
 H         -72.840378     -194.710693      -67.195976
 H         -73.499771     -190.872543      -66.996948
 H         -72.996262     -190.029175      -65.437012
 H         -73.790154     -194.196594      -65.211006
 H         -75.048470     -193.578430      -66.309769
 H         -74.920502     -191.669235      -65.192673
 H         -73.415398     -192.255264      -64.296463
