20
 generated by VMD
 C         -59.815845     -157.558899      -56.249245
 N         -60.532566     -157.366165      -57.208679
 H         -60.054073     -157.227020      -52.838333
 H         -59.084599     -157.685562      -55.453880
 C         -59.292248     -157.931885      -52.510441
 C         -57.961647     -157.446884      -52.073719
 C         -59.385067     -159.359360      -52.930309
 C         -57.454498     -158.400238      -50.902866
 C         -58.974354     -160.102203      -51.696575
 C         -57.556320     -159.889938      -51.126083
 H         -58.110889     -156.462936      -51.842995
 H         -57.315804     -157.413544      -52.965466
 H         -60.465462     -159.482758      -53.227825
 H         -58.675545     -159.672287      -53.754990
 H         -57.980671     -158.053131      -49.985687
 H         -56.510952     -158.119797      -50.633743
 H         -59.001408     -161.159790      -51.880226
 H         -59.740963     -160.033722      -50.941647
 H         -57.385345     -160.497559      -50.196083
 H         -56.784534     -160.171799      -51.849800
