20
 generated by VMD
 C         -50.804230     -129.702454      -45.301548
 N         -50.960567     -129.577911      -44.131142
 H         -49.211353     -128.935883      -41.895462
 H         -50.598717     -129.664688      -46.343857
 C         -48.206493     -129.158249      -41.668720
 C         -47.957878     -130.579010      -41.270840
 C         -47.404408     -128.019257      -41.240612
 C         -46.461235     -130.874481      -41.363415
 C         -45.936543     -128.419418      -41.338821
 C         -45.613422     -129.753326      -40.602139
 H         -48.502151     -131.249710      -41.979084
 H         -48.342392     -130.673431      -40.304783
 H         -47.544964     -127.246407      -41.936764
 H         -47.551987     -127.450325      -40.266926
 H         -45.986744     -130.938965      -42.403610
 H         -46.235207     -131.955353      -41.140129
 H         -45.275822     -127.625603      -40.945133
 H         -45.577583     -128.592224      -42.414932
 H         -44.589558     -130.082397      -40.558826
 H         -46.048706     -129.642441      -39.577885
