20
 generated by VMD
 C         -12.510146      -30.236996       -7.953564
 N         -13.493396      -30.034925       -7.462177
 H         -11.335987      -30.338156       -5.334151
 H         -10.490762      -30.567501       -3.730321
 C         -10.814585      -31.064133       -4.641690
 C          -9.624851      -31.562527       -5.419741
 C         -11.804731      -32.231548       -4.162490
 C          -8.965864      -32.786053       -4.755914
 C         -11.101365      -33.524250       -3.587963
 C          -9.951126      -33.900826       -4.425355
 H          -8.888115      -30.725508       -5.500360
 H          -9.807405      -31.828863       -6.495934
 H         -12.504616      -31.784988       -3.451217
 H         -12.387626      -32.601826       -4.998666
 H          -8.559276      -32.375088       -3.867041
 H          -8.104820      -33.123020       -5.267179
 H         -11.824510      -34.327972       -3.448363
 H         -10.744307      -33.328506       -2.533158
 H          -9.404169      -34.645981       -3.911738
 H         -10.279708      -34.342365       -5.345851
