20
 generated by VMD
 C         -44.717907     -122.312263      -35.922859
 N         -44.586388     -122.671837      -34.786800
 H         -45.232048     -122.918381      -39.523533
 H         -45.010521     -122.100838      -36.911747
 C         -44.945171     -121.819908      -39.702419
 C         -43.563717     -121.375648      -39.608330
 C         -46.032169     -120.704262      -39.562046
 C         -43.249306     -120.167900      -40.465984
 C         -45.729584     -119.571793      -40.466797
 C         -44.349995     -119.100609      -40.226479
 H         -42.812618     -122.075539      -39.802525
 H         -43.413746     -121.084335      -38.540310
 H         -47.030941     -121.241776      -39.600822
 H         -45.954929     -120.263161      -38.550537
 H         -43.324772     -120.580650      -41.493984
 H         -42.306389     -119.797729      -40.195271
 H         -46.511818     -118.773178      -40.272835
 H         -45.787720     -119.851028      -41.469494
 H         -44.127747     -118.189919      -40.897243
 H         -44.319633     -118.724037      -39.135944
