20
 generated by VMD
 C         -40.664661     -100.251076      -30.260275
 N         -41.076427     -100.408379      -29.188292
 H         -37.456417     -100.514084      -30.355848
 H         -40.245228      -99.846214      -31.171143
 C         -36.549450     -100.071098      -30.869780
 C         -36.155544      -99.913528      -32.290886
 C         -35.299313     -100.025772      -29.838100
 C         -35.114559      -98.810509      -32.519062
 C         -34.304844      -98.924156      -29.946495
 C         -33.909119      -98.628265      -31.484007
 H         -36.978283      -99.718117      -32.945358
 H         -35.792942     -100.928780      -32.516064
 H         -35.701294     -100.061707      -28.869312
 H         -34.729733     -100.975044      -29.921640
 H         -35.623985      -97.865982      -32.501022
 H         -34.635391      -98.939842      -33.427319
 H         -33.397415      -99.136482      -29.454075
 H         -34.516136      -97.993088      -29.357752
 H         -33.358181      -97.572975      -31.538261
 H         -33.037212      -99.230858      -31.817499
