20
 generated by VMD
 C         -51.837711     -129.892776      -45.261871
 N         -51.740746     -129.718155      -46.382191
 H         -48.542622     -129.837006      -43.134628
 H         -52.309330     -130.064621      -44.324104
 C         -47.865036     -130.228241      -42.451443
 C         -47.896198     -131.615829      -41.788189
 C         -47.336899     -129.048309      -41.676750
 C         -46.645195     -131.943771      -41.072632
 C         -46.095375     -129.365265      -40.818649
 C         -46.284798     -130.730652      -40.099628
 H         -48.094357     -132.390030      -42.554535
 H         -48.744038     -131.585083      -41.159374
 H         -47.224777     -128.242157      -42.362297
 H         -48.195671     -128.841507      -40.940948
 H         -45.718933     -132.051178      -41.589958
 H         -46.765308     -132.819107      -40.444855
 H         -45.908039     -128.466476      -40.319191
 H         -45.316410     -129.472672      -41.503639
 H         -45.342506     -131.007492      -39.553555
 H         -47.134968     -130.562592      -39.469624
