20
 generated by VMD
 C         -59.376701     -168.581894      -55.727291
 N         -58.948917     -168.792542      -54.701778
 H         -62.687828     -169.598145      -55.950531
 H         -59.823013     -168.230621      -56.642662
 C         -62.825981     -168.641602      -56.404530
 C         -62.736706     -168.514206      -57.924320
 C         -63.005543     -167.492889      -55.523941
 C         -63.871399     -167.655273      -58.392090
 C         -64.092064     -166.595871      -56.082253
 C         -63.815052     -166.308945      -57.601532
 H         -62.834400     -169.523773      -58.278088
 H         -61.740421     -168.128372      -58.177814
 H         -63.258640     -167.807892      -54.604240
 H         -62.142334     -166.857254      -55.400711
 H         -64.796936     -168.255096      -58.403473
 H         -63.699440     -167.488907      -59.476738
 H         -64.144394     -165.643250      -55.382927
 H         -65.118210     -167.059631      -56.092636
 H         -64.597824     -165.707840      -58.074718
 H         -62.934799     -165.731598      -57.713818
