20
 generated by VMD
 C         -70.578148     -196.745132      -65.259308
 N         -69.787102     -197.439270      -65.709877
 H         -73.527687     -196.419479      -65.492744
 H         -71.188568     -195.952408      -64.813942
 C         -73.661018     -195.675278      -66.318878
 C         -73.032272     -194.329971      -66.155678
 C         -74.258606     -196.036530      -67.609924
 C         -72.435532     -193.776337      -67.433517
 C         -74.722893     -194.643860      -68.299416
 C         -73.426270     -193.826538      -68.613480
 H         -72.259094     -194.219055      -65.328255
 H         -73.733711     -193.667953      -65.735802
 H         -73.422562     -196.483734      -68.273170
 H         -75.065948     -196.777466      -67.431541
 H         -71.519753     -194.407928      -67.671371
 H         -72.007088     -192.750153      -67.244263
 H         -75.530579     -194.108688      -67.827751
 H         -75.131279     -195.031616      -69.275047
 H         -72.910118     -194.267838      -69.391090
 H         -73.770340     -192.794312      -68.873489
