20
 generated by VMD
 C         -60.523846     -153.325287      -52.084095
 N         -60.436230     -152.552979      -51.286247
 H         -57.465847     -153.686310      -49.966309
 H         -60.578671     -153.929291      -52.937424
 C         -56.534290     -153.202469      -50.264694
 C         -55.249897     -153.627335      -49.463371
 C         -56.626602     -151.903458      -50.948906
 C         -54.062561     -152.898453      -49.981083
 C         -55.365997     -151.496582      -51.701000
 C         -54.257988     -151.524155      -50.696960
 H         -54.942669     -154.591629      -49.752266
 H         -55.354336     -153.595383      -48.400723
 H         -57.447422     -151.906799      -51.717121
 H         -56.947811     -151.179474      -50.210094
 H         -53.647560     -153.535385      -50.765816
 H         -53.338089     -152.692474      -49.108505
 H         -55.373413     -150.393661      -52.090134
 H         -55.203125     -151.986694      -52.562687
 H         -53.262299     -151.143951      -51.202320
 H         -54.631390     -150.881683      -49.944595
