20
 generated by VMD
 C         -69.071510     -180.301468      -59.417671
 N         -68.519844     -180.748993      -60.352188
 H         -67.267372     -177.362808      -59.720959
 H         -69.488396     -179.763626      -58.530140
 C         -66.429878     -176.741318      -59.864712
 C         -66.013741     -176.543350      -61.383217
 C         -65.284660     -177.060196      -58.916531
 C         -64.811127     -175.583878      -61.569878
 C         -64.190292     -176.039230      -59.171436
 C         -63.726070     -175.958618      -60.633839
 H         -66.919144     -176.151123      -61.837296
 H         -65.930275     -177.558670      -61.904003
 H         -65.475471     -177.223495      -57.877460
 H         -64.809700     -178.029144      -59.322666
 H         -65.137711     -174.644882      -61.361549
 H         -64.550713     -175.596786      -62.639923
 H         -63.202351     -176.190247      -58.634396
 H         -64.530205     -175.014496      -59.075272
 H         -62.784859     -175.450638      -60.517860
 H         -63.348328     -177.025024      -60.891499
