20
 generated by VMD
 C         -67.975784     -178.526947      -58.042484
 N         -66.913765     -178.414932      -57.586956
 H         -65.308907     -176.237381      -58.645168
 H         -68.956406     -178.706497      -58.499565
 C         -65.038269     -175.667587      -59.494343
 C         -66.023499     -174.645630      -60.033405
 C         -63.553490     -175.669876      -59.904087
 C         -65.426338     -173.309219      -59.944023
 C         -63.002281     -174.188309      -59.908276
 C         -64.062347     -173.102524      -60.445774
 H         -66.984436     -174.616241      -59.443665
 H         -66.302567     -174.895355      -61.050308
 H         -62.886295     -176.314499      -59.199432
 H         -63.515961     -176.107208      -60.929138
 H         -65.517632     -172.907990      -58.920338
 H         -66.101852     -172.554474      -60.382065
 H         -61.970676     -174.099976      -60.365635
 H         -62.846947     -173.758957      -58.921642
 H         -63.593754     -172.103455      -60.364300
 H         -64.217529     -173.431534      -61.511490
