20
 generated by VMD
 C         -11.578080      -41.542835       -6.860906
 N         -11.523106      -42.411190       -6.164172
 H         -14.672050      -42.648636       -8.182043
 H         -15.174479      -41.422302       -9.567804
 C         -15.279706      -42.452309       -9.166402
 C         -16.777899      -42.722221       -8.919576
 C         -14.802872      -43.465401      -10.190240
 C         -17.590755      -42.490299      -10.168469
 C         -15.570396      -43.463902      -11.564687
 C         -17.121096      -43.402264      -11.325530
 H         -17.097784      -42.032074       -8.111929
 H         -16.957075      -43.745327       -8.468122
 H         -13.693071      -43.348541      -10.341355
 H         -14.759626      -44.459225       -9.689443
 H         -17.558411      -41.423595      -10.483602
 H         -18.675886      -42.647850      -10.066854
 H         -15.360646      -44.333744      -12.104540
 H         -15.238312      -42.521545      -12.133229
 H         -17.568703      -43.128300      -12.263514
 H         -17.496519      -44.370300      -10.978288
