20
 generated by VMD
 C         -48.397617     -135.773026      -46.337978
 N         -47.662441     -136.029602      -45.436474
 H         -52.108757     -134.867477      -45.680103
 H         -49.294437     -135.481262      -46.879528
 C         -51.845432     -135.865540      -45.200855
 C         -52.505825     -137.153183      -45.636539
 C         -51.202610     -135.619461      -43.860401
 C         -51.622974     -138.347122      -45.165161
 C         -50.407692     -136.844513      -43.402237
 C         -51.105217     -138.117554      -43.707218
 H         -52.742085     -137.212585      -46.754044
 H         -53.453457     -137.127975      -45.158337
 H         -50.512249     -134.793335      -43.777008
 H         -51.981236     -135.381516      -43.083992
 H         -50.768410     -138.427979      -45.871674
 H         -52.295078     -139.213959      -45.268032
 H         -50.172901     -136.851364      -42.277111
 H         -49.451199     -136.809067      -43.942410
 H         -50.383335     -138.991364      -43.413872
 H         -52.048290     -138.015762      -42.964718
