20
 generated by VMD
 C         -10.953358      -34.208500       -8.822500
 N         -11.255161      -33.163258       -8.828958
 H         -11.419077      -38.065403       -8.006762
 H         -12.117338      -37.130970       -6.697195
 C         -12.349368      -38.000397       -7.350925
 C         -12.426715      -39.276615       -6.567144
 C         -13.668203      -37.651268       -7.992820
 C         -13.613631      -39.296314       -5.593656
 C         -14.845861      -37.746143       -7.100681
 C         -14.952076      -39.008369       -6.303834
 H         -11.551182      -39.449673       -5.941068
 H         -12.510298      -40.116810       -7.222695
 H         -13.532108      -36.618263       -8.469797
 H         -13.872402      -38.285400       -8.864626
 H         -13.462144      -38.526958       -4.778981
 H         -13.588267      -40.236195       -5.080850
 H         -15.779702      -37.503475       -7.727266
 H         -14.758471      -36.917480       -6.421364
 H         -15.686125      -38.800385       -5.482342
 H         -15.334267      -39.812313       -6.922153
