20
 generated by VMD
 C         -21.734545      -52.465294      -11.296021
 N         -21.527275      -52.946548      -10.301277
 H         -19.784056      -50.962223      -14.099765
 H         -21.585804      -51.843761      -12.241109
 C         -18.767210      -50.937954      -13.771764
 C         -18.119331      -52.061043      -14.472115
 C         -18.363132      -50.831074      -12.339166
 C         -16.622391      -51.849781      -14.492690
 C         -16.909687      -51.012932      -12.100656
 C         -16.177111      -52.013290      -13.044680
 H         -18.530224      -52.089851      -15.504731
 H         -18.400387      -52.975147      -13.910721
 H         -18.716396      -49.874912      -11.815167
 H         -18.866629      -51.656193      -11.818318
 H         -16.391434      -50.888985      -14.974070
 H         -16.032188      -52.584293      -15.078726
 H         -16.720840      -51.139606      -11.039578
 H         -16.492954      -50.059860      -12.347009
 H         -15.100316      -51.899422      -12.958893
 H         -16.333496      -53.041389      -12.764335
