20
 generated by VMD
 C          -9.282059      -24.350098        1.432734
 N          -9.546650      -25.293999        1.964062
 H          -7.391604      -23.210583       -0.669330
 H          -8.608512      -22.607468       -1.615764
 C          -7.564241      -22.978285       -1.741297
 C          -7.518695      -24.348743       -2.536575
 C          -6.690965      -21.923019       -2.311841
 C          -7.834424      -24.026608       -4.066541
 C          -6.999629      -21.594692       -3.800951
 C          -6.984334      -22.868614       -4.643251
 H          -8.209821      -24.967731       -2.043913
 H          -6.473257      -24.691729       -2.480400
 H          -6.737255      -20.994736       -1.770238
 H          -5.650974      -22.297569       -2.306397
 H          -8.885865      -23.685629       -4.145310
 H          -7.606899      -24.973160       -4.658243
 H          -6.303868      -20.848312       -4.198971
 H          -8.011712      -21.169992       -3.760510
 H          -7.308982      -22.707527       -5.673929
 H          -5.909356      -23.160191       -4.744985
