20
 generated by VMD
 C         -63.422401     -174.599152      -56.296947
 N         -62.278595     -174.818253      -56.124531
 H         -66.291229     -173.179886      -58.052227
 H         -64.469582     -174.465134      -56.538563
 C         -65.605141     -172.470764      -58.478096
 C         -65.578300     -170.926605      -58.003777
 C         -64.564575     -172.851898      -59.622105
 C         -64.139557     -170.310989      -58.087105
 C         -63.337589     -171.971573      -59.802898
 C         -63.536732     -170.510071      -59.459377
 H         -65.945099     -170.655365      -57.025444
 H         -66.264160     -170.414032      -58.745987
 H         -64.255371     -173.846817      -59.551785
 H         -65.055435     -172.918610      -60.541420
 H         -63.507565     -170.870544      -57.288555
 H         -64.132042     -169.192657      -57.828426
 H         -62.787628     -172.106155      -60.752884
 H         -62.538540     -172.440659      -59.111816
 H         -62.552437     -170.096451      -59.540668
 H         -64.129044     -169.984283      -60.237778
