20
 generated by VMD
 C         -55.676193     -148.992508      -45.547993
 N         -55.132317     -149.565109      -44.725327
 H         -54.363750     -148.130020      -48.342583
 H         -56.250885     -148.566406      -46.312244
 C         -54.242264     -147.247482      -48.894886
 C         -53.110916     -147.298523      -49.972992
 C         -54.977650     -145.993469      -48.499844
 C         -53.460678     -146.388321      -51.080830
 C         -55.194717     -145.062286      -49.753609
 C         -53.909164     -144.959473      -50.586628
 H         -53.011032     -148.241852      -50.550041
 H         -52.099617     -146.926376      -49.499168
 H         -55.930965     -146.289185      -48.168594
 H         -54.539715     -145.471634      -47.657791
 H         -54.216908     -146.782684      -51.776043
 H         -52.571392     -146.209335      -51.736832
 H         -55.803707     -144.095474      -49.561180
 H         -55.920208     -145.552048      -50.398212
 H         -54.356373     -144.396454      -51.400822
 H         -53.186672     -144.318893      -50.139908
