20
 generated by VMD
 C         -23.615261      -69.235817      -16.611847
 N         -23.896431      -69.909378      -15.718877
 H         -23.851536      -66.328186      -19.038073
 H         -23.570131      -68.672455      -17.522163
 C         -24.433155      -67.161919      -19.435646
 C         -23.876459      -68.028938      -20.646021
 C         -25.921736      -67.244682      -19.324800
 C         -24.574377      -69.438301      -20.802883
 C         -26.440132      -68.695923      -19.418859
 C         -26.150743      -69.395638      -20.689302
 H         -22.836866      -68.112076      -20.438135
 H         -23.905861      -67.308517      -21.582752
 H         -26.361143      -66.971832      -18.395655
 H         -26.274719      -66.644836      -20.015856
 H         -24.090921      -69.999657      -19.986214
 H         -24.252445      -69.979042      -21.769440
 H         -27.522816      -68.759811      -19.168053
 H         -25.990120      -69.309120      -18.581814
 H         -26.368536      -70.455353      -20.753103
 H         -26.517786      -68.815582      -21.530787
