20
 generated by VMD
 C         -13.137215      -28.133215       -3.861539
 N         -13.940188      -27.495598       -4.274326
 H         -10.424625      -28.918371       -2.489759
 H         -10.254261      -27.609476       -3.827781
 C          -9.793309      -28.511969       -3.273094
 C          -9.293027      -29.470562       -4.306575
 C          -8.589770      -28.039244       -2.397666
 C          -8.161924      -28.863621       -5.178021
 C          -7.534086      -27.396627       -3.268715
 C          -7.019457      -28.295589       -4.353863
 H         -10.049604      -29.812271       -5.062431
 H          -8.977739      -30.400282       -3.892503
 H          -8.951233      -27.251953       -1.664312
 H          -8.200740      -28.948925       -1.866973
 H          -8.565648      -28.200621       -5.899549
 H          -7.835632      -29.666067       -5.839217
 H          -6.673141      -27.151585       -2.609998
 H          -7.830639      -26.417772       -3.666572
 H          -6.337826      -27.653242       -4.978048
 H          -6.364116      -29.024933       -3.871570
