20
 generated by VMD
 C          -1.611482       -8.464295        0.365198
 N          -2.439466       -7.685273        0.260473
 H          -3.490517       -9.330828        2.371352
 H          -2.040890      -10.371553        2.285332
 C          -3.087786      -10.231192        2.730905
 C          -3.946712      -11.405810        2.206823
 C          -2.941355      -10.256564        4.303067
 C          -3.505188      -12.727543        2.831932
 C          -2.473222      -11.594209        4.829034
 C          -3.504555      -12.653148        4.398670
 H          -3.766301      -11.439670        1.114869
 H          -4.986953      -11.250216        2.380207
 H          -2.147778       -9.598541        4.624891
 H          -3.925725      -10.073333        4.727734
 H          -2.511793      -13.092813        2.563953
 H          -4.172897      -13.574409        2.659559
 H          -2.435959      -11.566296        5.939485
 H          -1.505551      -11.849848        4.403669
 H          -3.195913      -13.656665        4.777189
 H          -4.544760      -12.442487        4.699381
