20
 generated by VMD
 C         -21.225031      -52.069984      -10.250372
 N         -21.455130      -53.119553      -10.703084
 H         -19.810938      -50.246719      -12.888222
 H         -21.063364      -50.790310      -10.239276
 C         -18.721077      -50.427372      -12.952284
 C         -18.264618      -51.768669      -13.464491
 C         -17.752796      -49.630272      -12.216618
 C         -16.908525      -51.682606      -14.178985
 C         -16.373121      -49.743557      -12.844568
 C         -15.749798      -51.053894      -13.367710
 H         -19.007992      -52.203712      -14.189018
 H         -18.146135      -52.451790      -12.635622
 H         -17.922068      -48.546307      -12.138947
 H         -17.780174      -50.043877      -11.185564
 H         -17.010994      -51.166771      -15.107113
 H         -16.523054      -52.665779      -14.464375
 H         -15.715706      -49.168251      -12.146799
 H         -16.421261      -49.118446      -13.694257
 H         -14.858814      -50.919174      -13.970458
 H         -15.463508      -51.692150      -12.575832
