20
 generated by VMD
 C         -78.433624     -209.768600      -77.330780
 N         -79.045685     -208.964630      -76.761909
 H         -78.110542     -210.366150      -73.585457
 H         -77.929337     -210.548752      -77.751373
 C         -78.537201     -211.111710      -72.846115
 C         -77.536713     -211.622452      -71.878616
 C         -79.684547     -212.017059      -72.929413
 C         -78.182877     -211.940109      -70.566704
 C         -80.206116     -212.551163      -71.566498
 C         -79.139763     -213.057571      -70.634895
 H         -76.755096     -210.913727      -71.734825
 H         -77.117401     -212.586624      -72.216049
 H         -80.576019     -211.612457      -73.482849
 H         -79.475739     -212.877365      -73.504173
 H         -78.608833     -211.010391      -70.245796
 H         -77.445183     -212.191528      -69.814743
 H         -80.806587     -213.420853      -71.756592
 H         -80.707314     -211.714920      -70.981476
 H         -79.568077     -213.278214      -69.683723
 H         -78.560310     -213.910751      -71.063499
