20
 generated by VMD
 C          -6.390379      -22.420134        1.927993
 N          -6.321868      -22.938494        2.895610
 H          -5.487627      -19.793074       -0.490745
 H          -7.060957      -20.793550       -0.296911
 C          -6.368912      -20.268908       -1.039965
 C          -5.815134      -21.333023       -1.924475
 C          -7.159812      -19.237438       -1.833557
 C          -6.967817      -21.978048       -2.705834
 C          -8.355762      -19.868242       -2.576643
 C          -7.783275      -20.950420       -3.532820
 H          -5.311163      -22.069754       -1.311770
 H          -5.110926      -20.952307       -2.645842
 H          -7.475829      -18.411993       -1.152022
 H          -6.441464      -18.703972       -2.439202
 H          -7.649530      -22.571482       -2.080456
 H          -6.507652      -22.703709       -3.397151
 H          -8.825256      -19.115725       -3.207170
 H          -9.102053      -20.146935       -1.822216
 H          -8.602622      -21.575718       -3.967282
 H          -7.235932      -20.542826       -4.415073
