20
 generated by VMD
 C         -74.361641     -200.385849      -66.345078
 N         -73.320526     -200.929550      -66.313202
 H         -76.486519     -198.477295      -68.610046
 H         -75.289459     -199.765137      -66.260490
 C         -75.422256     -198.164246      -68.651199
 C         -74.881744     -197.257187      -67.643219
 C         -74.509926     -199.074570      -69.585617
 C         -73.572670     -196.561264      -68.060249
 C         -73.157425     -198.408936      -69.898727
 C         -72.637688     -197.529312      -68.756889
 H         -74.669319     -197.926636      -66.688919
 H         -75.611382     -196.505157      -67.390930
 H         -74.332214     -199.958527      -69.031136
 H         -74.923019     -199.361725      -70.506836
 H         -73.123718     -195.932968      -67.262337
 H         -73.967453     -195.835907      -68.724060
 H         -73.270409     -197.857025      -70.833366
 H         -72.439552     -199.164993      -69.975586
 H         -72.169273     -198.275269      -68.022903
 H         -71.863907     -196.921982      -69.098961
