20
 generated by VMD
 C         -50.025799     -144.366806      -44.352085
 N         -49.302536     -143.814697      -45.035614
 H         -52.321007     -142.548950      -45.793507
 H         -50.801800     -144.842041      -43.722149
 C         -52.939213     -142.096817      -46.534252
 C         -52.297215     -141.996033      -47.884109
 C         -54.373379     -141.509735      -46.488888
 C         -53.261681     -142.454117      -49.004642
 C         -55.229820     -141.980255      -47.581097
 C         -54.657505     -141.782074      -48.942062
 H         -51.377476     -142.526657      -48.015751
 H         -51.960941     -140.973526      -47.975262
 H         -54.741394     -141.685913      -45.511757
 H         -54.340340     -140.388809      -46.407173
 H         -53.415466     -143.627823      -48.770992
 H         -52.905453     -142.426697      -50.090950
 H         -56.053120     -141.250198      -47.592564
 H         -55.660686     -142.992752      -47.347572
 H         -55.347569     -142.370087      -49.622822
 H         -54.503860     -140.737137      -49.380428
