20
 generated by VMD
 C         -79.740273     -205.367096      -71.209610
 N         -80.224716     -206.422409      -71.460777
 H         -77.323242     -202.984390      -70.496437
 H         -79.418205     -204.468094      -70.791306
 C         -76.279549     -203.342728      -70.338783
 C         -75.237579     -202.298050      -70.339134
 C         -75.954247     -204.742859      -70.075508
 C         -73.803726     -202.994675      -70.596153
 C         -74.712257     -204.923553      -69.216797
 C         -73.459167     -203.954453      -69.459564
 H         -75.192017     -201.740967      -69.354698
 H         -75.485710     -201.538986      -71.042801
 H         -76.739799     -205.313705      -69.623375
 H         -75.895584     -205.174240      -71.068382
 H         -72.954071     -202.222809      -70.772514
 H         -73.969963     -203.634338      -71.547447
 H         -74.268509     -205.980942      -69.310432
 H         -75.036530     -204.875214      -68.186508
 H         -72.989471     -203.276154      -68.629715
 H         -72.651215     -204.656708      -69.882118
