20
 generated by VMD
 C         -73.800613     -200.408920      -65.679245
 N         -73.300919     -201.111328      -64.891739
 H         -71.929840     -197.066315      -66.708633
 H         -74.316704     -199.849991      -66.504570
 C         -72.702026     -196.930191      -67.440758
 C         -73.759697     -195.786896      -67.194382
 C         -72.596710     -197.527130      -68.840630
 C         -73.987999     -195.079712      -68.517021
 C         -73.863747     -197.323563      -69.689438
 C         -74.558914     -195.967072      -69.646812
 H         -73.274208     -195.005600      -66.392471
 H         -74.694466     -196.198471      -66.903519
 H         -71.754822     -197.109375      -69.388985
 H         -72.568748     -198.611450      -68.759460
 H         -73.153908     -194.457214      -68.868660
 H         -74.750717     -194.315247      -68.394165
 H         -74.550385     -198.176865      -69.694977
 H         -73.434021     -197.406998      -70.718773
 H         -74.405975     -195.405762      -70.569954
 H         -75.738831     -196.081100      -69.467628
