20
 generated by VMD
 C         -19.880453      -50.077133       -9.420836
 N         -19.673426      -51.187012       -9.648654
 H         -16.599857      -47.964905      -10.043322
 H         -19.987909      -49.155552       -8.935561
 C         -16.550850      -48.202450      -11.064508
 C         -15.574533      -49.097240      -11.708835
 C         -17.446476      -47.379295      -11.932110
 C         -16.293991      -49.932095      -12.771429
 C         -17.808090      -48.080349      -13.245267
 C         -16.813299      -49.060936      -13.927979
 H         -15.116691      -49.757984      -10.952821
 H         -14.712586      -48.549618      -12.137888
 H         -18.361086      -47.314087      -11.348387
 H         -17.103401      -46.361664      -11.992938
 H         -17.132524      -50.489662      -12.291380
 H         -15.627344      -50.724991      -13.149994
 H         -18.093428      -47.351360      -14.043369
 H         -18.714359      -48.581951      -13.041636
 H         -17.365265      -49.682770      -14.696779
 H         -15.874993      -48.603088      -14.410066
