20
 generated by VMD
 C         -40.733639     -100.071655      -29.824877
 N         -40.434704     -100.267395      -28.698071
 H         -37.369358      -99.555862      -30.556616
 H         -40.900055     -100.023476      -30.885977
 C         -36.392349      -99.388367      -30.834692
 C         -35.876038      -99.532326      -32.202030
 C         -35.365463      -99.483727      -29.646816
 C         -34.885254      -98.377861      -32.503300
 C         -34.368736      -98.474403      -30.021730
 C         -33.812378      -98.420059      -31.469780
 H         -36.657398      -99.516136      -32.952969
 H         -35.403931     -100.528282      -32.382309
 H         -35.720619      -99.389366      -28.643929
 H         -34.873234     -100.473488      -29.673967
 H         -35.471188      -97.516701      -32.658215
 H         -34.476688      -98.565338      -33.460381
 H         -33.498318      -98.434830      -29.324087
 H         -34.844334      -97.494370      -29.743059
 H         -33.379356      -97.447662      -31.490835
 H         -33.028240      -99.109238      -31.851139
