20
 generated by VMD
 C         -19.868927      -50.291485      -10.138366
 N         -20.119656      -51.231647       -9.490102
 H         -17.153538      -49.082001      -10.056851
 H         -19.737617      -49.208488      -10.710663
 C         -17.001530      -48.986397      -11.104058
 C         -15.885582      -49.814556      -11.631534
 C         -17.688932      -47.936008      -11.992555
 C         -16.275415      -50.304077      -13.021144
 C         -17.789463      -48.287823      -13.503581
 C         -16.558313      -49.046547      -13.853510
 H         -15.658260      -50.680347      -10.998701
 H         -14.933921      -49.234890      -11.584610
 H         -18.714977      -47.725510      -11.665812
 H         -17.082260      -47.027580      -11.959298
 H         -17.140024      -51.020481      -12.951852
 H         -15.500448      -50.969265      -13.516711
 H         -17.925146      -47.413258      -14.076655
 H         -18.759373      -48.854206      -13.811334
 H         -16.456751      -49.301521      -14.949187
 H         -15.721620      -48.322277      -13.607860
