20
 generated by VMD
 C          -7.029523      -23.059782        2.487325
 N          -6.049928      -22.694504        2.844188
 H          -6.229434      -20.778624       -0.157040
 H          -7.801443      -21.611731       -0.712551
 C          -6.876373      -21.057777       -1.011346
 C          -6.203360      -21.980536       -2.034754
 C          -7.268848      -19.659925       -1.653946
 C          -7.042143      -22.103962       -3.273334
 C          -8.120383      -19.812130       -2.930412
 C          -7.447168      -20.775223       -3.897877
 H          -6.011091      -22.948725       -1.581441
 H          -5.136526      -21.699863       -2.223401
 H          -7.803064      -19.037001       -0.922878
 H          -6.267321      -19.246075       -1.973088
 H          -7.993086      -22.643490       -3.025832
 H          -6.493453      -22.667221       -4.051865
 H          -8.275546      -18.866442       -3.501063
 H          -9.057862      -20.290846       -2.595710
 H          -8.162840      -20.988560       -4.724700
 H          -6.574142      -20.257683       -4.416413
