20
 generated by VMD
 C         -57.653343     -164.279022      -56.657162
 N         -57.253750     -163.294235      -57.210659
 H         -59.852680     -165.330139      -54.603325
 H         -57.858044     -165.244553      -56.134308
 C         -60.850483     -164.843460      -54.588207
 C         -61.780228     -165.464417      -53.613365
 C         -61.401196     -164.428940      -55.938644
 C         -63.237164     -164.996323      -53.656059
 C         -62.714241     -163.796814      -55.812733
 C         -63.720631     -164.795349      -55.109596
 H         -61.376945     -165.423660      -52.597946
 H         -61.870155     -166.494492      -53.896946
 H         -60.573059     -163.911118      -56.405369
 H         -61.519352     -165.370224      -56.546009
 H         -63.351940     -164.058807      -53.118664
 H         -63.903370     -165.675446      -53.213902
 H         -63.193901     -163.535187      -56.838936
 H         -62.781708     -162.888458      -55.208763
 H         -64.730217     -164.424118      -55.239426
 H         -63.636196     -165.775848      -55.606632
