20
 generated by VMD
 C         -40.855118     -103.892761      -37.120823
 N         -40.746017     -104.789383      -36.396618
 H         -39.906044     -105.803574      -33.849560
 H         -40.771015     -103.218925      -37.978756
 C         -39.333580     -106.558998      -33.343979
 C         -37.952152     -106.160027      -32.879917
 C         -39.721416     -107.948654      -33.384697
 C         -37.711552     -106.838737      -31.373386
 C         -39.611332     -108.592430      -32.004028
 C         -38.202934     -108.295288      -31.387714
 H         -37.740555     -105.074516      -32.795681
 H         -37.242798     -106.604515      -33.681484
 H         -40.728523     -108.157333      -33.700958
 H         -39.140465     -108.503311      -34.123428
 H         -38.313339     -106.138550      -30.749815
 H         -36.622684     -106.730003      -31.141100
 H         -39.702385     -109.723709      -32.163578
 H         -40.444077     -108.398941      -31.342911
 H         -38.000957     -108.750298      -30.475721
 H         -37.498817     -108.811958      -32.150360
