20
 generated by VMD
 C         -74.650085     -201.494324      -65.992012
 N         -73.616409     -200.963242      -66.046951
 H         -76.301323     -199.033310      -68.668732
 H         -75.467064     -202.124756      -66.143684
 C         -75.497597     -198.371445      -68.864601
 C         -75.013054     -197.132980      -68.141518
 C         -74.577156     -198.970306      -69.908386
 C         -73.465637     -196.841232      -68.073349
 C         -73.138351     -198.399063      -70.042412
 C         -72.530960     -197.797607      -68.744209
 H         -75.409821     -197.146759      -67.145531
 H         -75.573532     -196.336838      -68.556648
 H         -74.606155     -200.056061      -69.695015
 H         -75.082619     -198.872879      -70.927376
 H         -73.159477     -196.773514      -66.999084
 H         -73.511772     -195.866318      -68.487610
 H         -73.246178     -197.609619      -70.815285
 H         -72.409096     -199.017151      -70.493988
 H         -72.252884     -198.655197      -67.986748
 H         -71.654594     -197.311050      -68.907249
