20
 generated by VMD
 C         -11.964413      -25.782721       -0.161099
 N         -12.990715      -26.154020       -0.382970
 H          -9.605538      -26.752247       -2.826252
 H          -9.496318      -25.893095       -4.324984
 C          -8.919600      -26.285845       -3.471763
 C          -7.895690      -27.190319       -4.095428
 C          -8.295619      -25.034964       -2.734718
 C          -6.738797      -26.534725       -4.768512
 C          -7.138759      -24.397127       -3.514041
 C          -6.124716      -25.401163       -4.038244
 H          -8.343661      -27.972481       -4.633254
 H          -7.391810      -27.803930       -3.361463
 H          -9.034845      -24.209702       -2.537253
 H          -7.963523      -25.351627       -1.776985
 H          -7.156032      -26.169607       -5.711162
 H          -6.019208      -27.251228       -5.141097
 H          -6.621396      -23.630232       -2.963978
 H          -7.563766      -23.903364       -4.379273
 H          -5.310072      -24.898144       -4.597622
 H          -5.635465      -25.788734       -3.134462
