20
 generated by VMD
 C         -52.563034     -147.083099      -45.353397
 N         -53.583794     -147.378586      -44.834873
 H         -54.751904     -147.189301      -48.028316
 H         -51.571110     -146.793015      -45.764313
 C         -54.484352     -146.264893      -48.437965
 C         -53.328449     -146.250259      -49.373943
 C         -55.274620     -145.139832      -48.118366
 C         -53.437740     -145.031693      -50.364098
 C         -55.229553     -143.955460      -49.093182
 C         -53.780514     -143.754639      -49.569698
 H         -53.333866     -147.113693      -50.049599
 H         -52.413197     -146.190918      -48.840176
 H         -56.305511     -145.547836      -48.091118
 H         -54.960438     -144.638519      -47.241241
 H         -54.299767     -145.205704      -51.045830
 H         -52.494747     -144.999619      -50.863674
 H         -55.466778     -142.995010      -48.537430
 H         -55.864079     -144.072205      -49.947754
 H         -53.806732     -142.871948      -50.146053
 H         -53.175373     -143.624420      -48.692276
