20
 generated by VMD
 C         -24.886911      -70.678589      -16.664188
 N         -25.133438      -70.865906      -15.541776
 H         -23.661922      -68.125069      -18.902327
 H         -24.394394      -70.520012      -17.719908
 C         -24.390661      -68.807373      -19.421494
 C         -23.836763      -69.366447      -20.718679
 C         -25.808855      -68.198364      -19.746113
 C         -24.846420      -70.340454      -21.325596
 C         -26.917477      -69.185028      -20.398157
 C         -26.167299      -69.726936      -21.706472
 H         -22.847925      -69.864426      -20.645578
 H         -23.591011      -68.522507      -21.478510
 H         -26.190855      -67.781662      -18.760761
 H         -25.521921      -67.242737      -20.443682
 H         -24.961658      -71.237282      -20.701239
 H         -24.299858      -70.672058      -22.248938
 H         -27.862530      -68.602844      -20.612108
 H         -27.191973      -70.125961      -19.819532
 H         -26.896433      -70.385216      -22.202936
 H         -25.978670      -68.818703      -22.312199
