20
 generated by VMD
 C         -78.059402     -204.178177      -69.793884
 N         -79.087158     -203.699539      -69.979790
 H         -75.646477     -202.456924      -67.490570
 H         -77.108612     -204.635239      -69.557701
 C         -75.398293     -202.469177      -68.601250
 C         -75.804405     -201.280334      -69.475464
 C         -74.257103     -203.360580      -69.060539
 C         -74.985222     -201.297241      -70.787437
 C         -73.118599     -202.530640      -69.408188
 C         -73.426895     -201.363785      -70.230644
 H         -75.695610     -200.322769      -68.992920
 H         -76.897552     -201.463303      -69.648849
 H         -73.961380     -204.171936      -68.364388
 H         -74.454422     -204.051956      -69.976341
 H         -75.083855     -200.382126      -71.360840
 H         -75.250381     -202.204956      -71.406822
 H         -72.474899     -203.238358      -69.915901
 H         -72.607361     -202.159576      -68.525200
 H         -73.377892     -200.538513      -69.580589
 H         -72.726746     -201.084747      -71.000420
