20
 generated by VMD
 C         -30.750645      -78.428993      -25.267532
 N         -31.272530      -77.386894      -25.021807
 H         -29.152966      -77.098953      -22.625093
 H         -30.199139      -79.232010      -25.781729
 C         -28.693800      -78.036194      -22.528526
 C         -27.510689      -78.247475      -23.325348
 C         -29.499201      -79.183220      -22.068390
 C         -26.584562      -79.090096      -22.420321
 C         -28.644779      -80.189972      -21.349710
 C         -27.232571      -80.426010      -21.955465
 H         -27.045595      -77.360832      -23.572870
 H         -27.731289      -78.697281      -24.241156
 H         -30.348593      -78.838509      -21.379820
 H         -29.849630      -79.617706      -22.992311
 H         -26.198025      -78.434380      -21.613276
 H         -25.788086      -79.483910      -22.999809
 H         -29.123352      -81.163689      -21.258913
 H         -28.607603      -79.908463      -20.362186
 H         -26.596634      -81.056999      -21.246269
 H         -27.339092      -81.025620      -22.849316
