20
 generated by VMD
 C         -49.572601     -127.231361      -40.113945
 N         -49.394421     -126.841148      -39.029495
 H         -46.421143     -126.825981      -42.250149
 H         -50.017242     -127.532898      -41.052391
 C         -46.272575     -126.094627      -41.500282
 C         -45.266045     -126.632561      -40.542400
 C         -46.799641     -124.769997      -41.429298
 C         -44.116123     -125.660797      -40.596439
 C         -45.583313     -123.783585      -41.481041
 C         -44.576973     -124.144386      -40.291531
 H         -44.935017     -127.667068      -40.931347
 H         -45.714272     -126.774399      -39.505299
 H         -47.377697     -124.660057      -42.365849
 H         -47.493980     -124.559250      -40.671455
 H         -43.626907     -125.552040      -41.556126
 H         -43.353840     -125.962280      -39.905285
 H         -45.797272     -122.685379      -41.515442
 H         -44.985897     -123.796761      -42.373951
 H         -43.601757     -123.562508      -40.375122
 H         -44.999657     -124.072601      -39.291656
