20
 generated by VMD
 C         -20.208593      -56.177250      -16.708368
 N         -21.341639      -56.208492      -16.974941
 H         -22.571907      -59.018177      -17.044355
 H         -19.224514      -56.298576      -16.870548
 C         -22.331465      -59.653751      -16.215097
 C         -22.435125      -59.229439      -14.788394
 C         -21.869854      -61.127121      -16.601219
 C         -21.170759      -59.665527      -13.992629
 C         -20.663239      -61.508896      -15.620107
 C         -21.027853      -61.253925      -14.111935
 H         -23.349661      -59.624996      -14.344877
 H         -22.414413      -58.114826      -14.890741
 H         -22.731783      -61.764557      -16.442720
 H         -21.595402      -61.184052      -17.664488
 H         -21.382200      -59.483158      -12.949254
 H         -20.269699      -59.028408      -14.212442
 H         -19.863132      -60.820370      -15.916130
 H         -20.521599      -62.573746      -15.709708
 H         -21.849283      -61.817276      -13.661931
 H         -20.105352      -61.593159      -13.537794
