20
 generated by VMD
 C         -13.513525      -30.568247       -8.353549
 N         -13.536918      -30.091007       -9.387136
 H         -10.968392      -31.321577       -5.404115
 H         -11.153878      -31.944057       -3.659617
 C         -10.926799      -32.228539       -4.749944
 C          -9.566263      -32.854752       -4.861471
 C         -12.002796      -33.225170       -5.221338
 C          -9.369431      -34.098705       -3.988725
 C         -11.867706      -34.555248       -4.325786
 C         -10.420831      -35.132534       -4.346822
 H          -8.764397      -32.178360       -4.499568
 H          -9.375044      -33.209091       -5.889582
 H         -13.020893      -32.810322       -5.195223
 H         -11.758636      -33.541817       -6.235537
 H          -9.450668      -33.852715       -2.938342
 H          -8.414503      -34.483196       -4.312058
 H         -12.504692      -35.261322       -4.774021
 H         -12.133843      -34.323872       -3.269580
 H         -10.420650      -36.001774       -3.728171
 H         -10.164218      -35.510941       -5.354962
