20
 generated by VMD
 C         -59.475060     -158.222046      -57.257401
 N         -58.451035     -158.539429      -57.736389
 H         -60.394348     -158.195435      -53.497337
 H         -60.445972     -157.945984      -56.913288
 C         -60.011436     -159.071960      -52.895584
 C         -58.554996     -159.119583      -52.493713
 C         -60.670830     -160.427231      -53.126232
 C         -58.356621     -160.216202      -51.349045
 C         -60.429348     -161.602585      -52.163692
 C         -58.950165     -161.584656      -51.698868
 H         -58.020569     -158.147293      -52.268105
 H         -58.029064     -159.323944      -53.444763
 H         -61.781494     -160.485962      -53.235535
 H         -60.263546     -160.703430      -54.075367
 H         -58.910812     -159.961121      -50.465191
 H         -57.319046     -160.381592      -51.097290
 H         -60.604935     -162.576309      -52.734909
 H         -61.162697     -161.690933      -51.301968
 H         -58.926407     -162.168579      -50.817265
 H         -58.427837     -161.975677      -52.534908
