20
 generated by VMD
 C         -59.924278     -152.358124      -51.019855
 N         -60.785793     -153.094009      -51.311646
 H         -56.822250     -152.383026      -48.876385
 H         -59.059879     -151.768005      -50.904247
 C         -55.961895     -151.971725      -49.404968
 C         -54.681717     -152.766922      -49.476261
 C         -55.981758     -150.505554      -49.702854
 C         -54.102253     -152.252304      -50.941757
 C         -55.195816     -149.988083      -50.978783
 C         -53.821774     -150.721390      -51.005737
 H         -54.926777     -153.831726      -49.530231
 H         -53.965382     -152.535629      -48.632175
 H         -57.022907     -150.174881      -49.691360
 H         -55.634926     -150.163300      -48.765602
 H         -54.767715     -152.604538      -51.759666
 H         -53.108437     -152.661835      -50.992546
 H         -55.004242     -148.912003      -50.836800
 H         -55.858910     -150.020554      -51.809849
 H         -53.248878     -150.284378      -51.779068
 H         -53.312386     -150.370621      -50.084152
