20
 generated by VMD
 C         -78.085670     -204.103226      -69.976883
 N         -79.166534     -203.764832      -70.013725
 H         -76.218773     -203.158234      -68.048447
 H         -77.008408     -204.374313      -70.094215
 C         -75.503143     -202.637970      -68.650368
 C         -75.913864     -201.559402      -69.591896
 C         -74.313492     -203.455978      -68.903976
 C         -74.877266     -201.333221      -70.764671
 C         -73.096527     -202.656937      -69.372078
 C         -73.480118     -201.477814      -70.316849
 H         -75.925987     -200.671402      -68.911079
 H         -76.903290     -201.731491      -70.078537
 H         -74.026619     -204.042511      -68.034447
 H         -74.569542     -204.225311      -69.588760
 H         -75.026207     -200.313690      -71.183762
 H         -75.017136     -201.969513      -71.602074
 H         -72.396774     -203.417633      -69.865555
 H         -72.546669     -202.272964      -68.424606
 H         -73.190514     -200.409485      -69.853165
 H         -72.909294     -201.402161      -71.227631
