20
 generated by VMD
 C         -12.377956      -31.528255       -8.904023
 N         -12.464740      -30.657619       -8.182097
 H         -10.787964      -34.944462       -7.714105
 H         -11.929211      -33.905949       -6.857403
 C         -11.327441      -34.846828       -6.706909
 C         -10.347716      -34.841381       -5.506099
 C         -12.342151      -36.003277       -6.637508
 C         -11.123578      -34.602200       -4.184500
 C         -13.042038      -35.826675       -5.335668
 C         -12.194861      -35.712029       -4.062920
 H          -9.648280      -34.008812       -5.705412
 H          -9.797129      -35.783180       -5.531332
 H         -13.050797      -35.953827       -7.471081
 H         -11.771233      -36.955040       -6.672185
 H         -11.666559      -33.659542       -4.180261
 H         -10.378060      -34.717598       -3.387262
 H         -13.639985      -36.751625       -5.126203
 H         -13.698982      -35.031574       -5.328077
 H         -12.831200      -35.551327       -3.216104
 H         -11.747983      -36.718952       -3.896863
