20
 generated by VMD
 C         -74.923035     -201.847961      -66.423294
 N         -74.399002     -201.220779      -65.617661
 H         -76.387703     -199.025299      -68.731743
 H         -75.313156     -202.481750      -67.264725
 C         -75.380371     -198.732361      -69.032021
 C         -74.960571     -197.448822      -68.257141
 C         -74.416267     -199.408920      -69.914726
 C         -73.444466     -197.174973      -68.001488
 C         -73.227699     -198.390396      -70.281288
 C         -72.531387     -197.824036      -69.013748
 H         -75.480080     -197.465576      -67.335709
 H         -75.424744     -196.472092      -68.775932
 H         -73.990875     -200.241119      -69.395599
 H         -74.976173     -199.572784      -70.883911
 H         -73.217285     -197.409897      -66.947296
 H         -73.311142     -196.092346      -68.229904
 H         -73.625420     -197.487946      -70.837967
 H         -72.539833     -198.828583      -70.960815
 H         -71.880081     -198.523621      -68.488007
 H         -71.762466     -197.018158      -69.382042
