20
 generated by VMD
 C         -10.571017      -39.653088       -6.862782
 N         -11.171871      -40.102257       -6.063056
 H         -13.446331      -40.694912       -8.988269
 H         -15.001945      -39.833046       -9.290718
 C         -14.565858      -40.868149       -9.277500
 C         -15.199615      -41.676834       -8.193132
 C         -14.784785      -41.555309      -10.602901
 C         -16.655664      -41.966820       -8.528578
 C         -16.199690      -42.049503      -10.911091
 C         -16.777979      -42.788567       -9.753220
 H         -15.162037      -41.155483       -7.177199
 H         -14.737939      -42.661224       -7.980461
 H         -14.391412      -40.893627      -11.430509
 H         -14.167287      -42.433094      -10.628775
 H         -17.213802      -41.028118       -8.663915
 H         -17.195131      -42.412872       -7.663960
 H         -16.160597      -42.616867      -11.777172
 H         -16.731632      -41.052574      -11.095401
 H         -17.865732      -42.944302       -9.914033
 H         -16.191664      -43.688229       -9.566288
