20
 generated by VMD
 C         -27.906910      -82.704666      -27.256992
 N         -27.190104      -83.389206      -26.672049
 H         -31.260216      -84.230881      -26.442898
 H         -28.581461      -82.064957      -27.761671
 C         -31.800306      -84.966209      -25.812666
 C         -31.415722      -84.922142      -24.314611
 C         -32.337540      -86.220116      -26.357557
 C         -32.461464      -85.573380      -23.470667
 C         -33.178036      -87.069290      -25.430489
 C         -32.737663      -87.002876      -23.894281
 H         -31.247698      -83.783340      -24.104555
 H         -30.437933      -85.427673      -24.154202
 H         -32.995766      -86.084732      -27.214001
 H         -31.455259      -86.804680      -26.739399
 H         -33.423363      -85.025848      -23.338842
 H         -32.090904      -85.485924      -22.472006
 H         -33.073467      -88.074265      -25.732344
 H         -34.254631      -86.842117      -25.391695
 H         -33.605507      -87.518280      -23.334082
 H         -31.843910      -87.555428      -23.777283
