20
 generated by VMD
 C         -31.699942      -78.812416      -26.467438
 N         -31.074295      -78.006271      -26.977020
 H         -28.645433      -80.870682      -25.162182
 H         -32.375767      -79.303246      -25.834200
 C         -28.860098      -81.008873      -24.093994
 C         -27.685514      -80.841957      -23.275278
 C         -29.982096      -81.941330      -23.712009
 C         -27.752779      -81.130516      -21.731960
 C         -30.145319      -82.216980      -22.179960
 C         -28.730179      -82.334343      -21.492668
 H         -27.055897      -79.991119      -23.464207
 H         -27.026529      -81.696396      -23.592754
 H         -30.862774      -81.591667      -24.219501
 H         -29.915018      -82.977715      -24.041485
 H         -28.185978      -80.202179      -21.240847
 H         -26.787832      -81.322060      -21.230577
 H         -30.647877      -83.107048      -22.035173
 H         -30.591980      -81.383247      -21.620111
 H         -28.809929      -82.416611      -20.390203
 H         -28.326567      -83.174141      -22.007559
