20
 generated by VMD
 C         -12.521940      -27.452751       -2.626569
 N         -13.628173      -27.503641       -2.627624
 H         -10.566460      -27.220150       -3.853420
 H          -9.504208      -26.497332       -5.062465
 C          -9.514924      -27.085907       -4.105620
 C          -8.924425      -28.438608       -4.435409
 C          -8.801224      -26.485291       -2.906339
 C          -7.461532      -28.366713       -4.737768
 C          -7.285717      -26.372414       -3.339845
 C          -6.732719      -27.811508       -3.482038
 H          -9.497844      -28.821602       -5.236261
 H          -9.174337      -29.239372       -3.634160
 H          -9.121330      -25.505690       -2.592547
 H          -8.865540      -27.018679       -1.961233
 H          -7.164347      -27.864689       -5.704854
 H          -7.129210      -29.420753       -4.883919
 H          -6.693774      -25.908955       -2.586236
 H          -7.196251      -25.728094       -4.224208
 H          -5.666591      -27.814014       -3.732044
 H          -6.953861      -28.421553       -2.586342
