20
 generated by VMD
 C         -78.934074     -206.895325      -75.364487
 N         -79.714897     -207.064148      -76.216324
 H         -78.165848     -210.022964      -73.289650
 H         -78.259338     -206.762955      -74.447060
 C         -77.840439     -209.629700      -72.270905
 C         -76.689758     -208.740677      -71.938629
 C         -78.161552     -210.665665      -71.271797
 C         -76.682137     -208.288025      -70.484528
 C         -78.294395     -210.122787      -69.815590
 C         -76.903572     -209.500702      -69.545822
 H         -76.725998     -207.878510      -72.613037
 H         -75.772545     -209.338791      -72.162346
 H         -79.254089     -210.848404      -71.459015
 H         -77.697495     -211.646301      -71.372566
 H         -77.483467     -207.525726      -70.278496
 H         -75.665527     -207.820572      -70.366219
 H         -78.550331     -210.960510      -69.204720
 H         -79.164352     -209.366653      -69.698257
 H         -76.968773     -209.263138      -68.485947
 H         -76.017616     -210.085587      -69.736397
