20
 generated by VMD
 C         -60.999485     -156.241882      -54.850773
 N         -60.210827     -155.577621      -55.458912
 H         -59.804737     -156.792801      -51.891163
 H         -61.637264     -156.846664      -54.175926
 C         -58.691139     -156.735992      -51.750389
 C         -58.009651     -155.426544      -51.675785
 C         -57.839401     -157.896378      -51.995293
 C         -56.750362     -155.553833      -50.727871
 C         -56.674553     -158.071823      -51.136715
 C         -55.892696     -156.774246      -51.064274
 H         -58.677364     -154.772568      -51.163998
 H         -57.706860     -154.980026      -52.622257
 H         -58.468952     -158.858902      -51.994167
 H         -57.390598     -157.891144      -53.034897
 H         -57.099930     -155.712067      -49.726246
 H         -55.961956     -154.807526      -50.793442
 H         -55.942234     -158.825180      -51.381428
 H         -57.211735     -158.298752      -50.176399
 H         -55.161079     -156.916733      -50.319851
 H         -55.260891     -156.485352      -51.995960
