20
 generated by VMD
 C         -59.919636     -153.211075      -51.390877
 N         -60.434105     -152.124161      -51.568539
 H         -57.169426     -153.674393      -49.545231
 H         -59.472061     -154.168869      -51.093994
 C         -56.432201     -152.975449      -49.924458
 C         -54.923431     -153.219025      -49.487450
 C         -56.681473     -151.564911      -50.458172
 C         -53.885357     -152.586227      -50.416908
 C         -55.549793     -151.138046      -51.451580
 C         -54.230438     -151.116623      -50.808479
 H         -54.840389     -154.387863      -49.487144
 H         -54.750183     -152.756149      -48.486225
 H         -57.679867     -151.438248      -50.939262
 H         -56.805424     -150.952118      -49.573586
 H         -53.919785     -153.144928      -51.339664
 H         -52.930256     -152.656570      -49.849976
 H         -55.867584     -150.185638      -51.958172
 H         -55.714935     -151.850403      -52.298100
 H         -53.433712     -150.648727      -51.494751
 H         -54.359146     -150.562592      -49.824574
