20
 generated by VMD
 C         -12.609877      -30.255222       -8.095730
 N         -13.134575      -30.566801       -7.164108
 H         -11.379407      -30.482405       -5.487996
 H         -10.738205      -30.864754       -3.746171
 C         -10.916667      -31.266191       -4.734959
 C          -9.581199      -31.744232       -5.301497
 C         -11.994636      -32.300953       -4.593536
 C          -8.990910      -33.039757       -4.638832
 C         -11.421869      -33.533039       -3.914763
 C         -10.150211      -34.101212       -4.506380
 H          -8.869955      -30.942219       -5.287043
 H          -9.751039      -31.878563       -6.441828
 H         -12.875207      -31.941538       -4.055217
 H         -12.297098      -32.528641       -5.607391
 H          -8.600804      -32.804352       -3.672338
 H          -8.163778      -33.377815       -5.209540
 H         -12.173203      -34.369568       -3.980596
 H         -11.325850      -33.390743       -2.850712
 H          -9.829592      -34.958569       -3.912763
 H         -10.417559      -34.405834       -5.511732
