20
 generated by VMD
 C         -48.237797     -135.390945      -46.120766
 N         -47.419201     -135.045685      -46.934258
 H         -51.418919     -134.587540      -45.465782
 H         -48.739334     -135.560944      -45.192207
 C         -51.337601     -135.622238      -45.012547
 C         -51.995907     -136.834061      -45.440475
 C         -51.304840     -135.444885      -43.461872
 C         -51.364517     -138.064041      -44.797199
 C         -50.716488     -136.692780      -42.819233
 C         -51.348404     -137.958633      -43.215096
 H         -51.890778     -136.822617      -46.475700
 H         -53.090740     -136.724350      -45.198299
 H         -50.719482     -134.555099      -43.190922
 H         -52.309536     -135.197906      -43.244751
 H         -50.341122     -138.370117      -45.179058
 H         -52.069065     -138.931824      -45.085381
 H         -50.698315     -136.647003      -41.700031
 H         -49.629417     -136.868317      -43.184868
 H         -50.747761     -138.682236      -42.815601
 H         -52.452072     -137.800247      -42.849571
