20
 generated by VMD
 C         -56.129993     -150.156082      -47.207985
 N         -57.130062     -150.265289      -46.561817
 H         -53.309162     -147.893326      -47.591824
 H         -55.263145     -150.184555      -47.831631
 C         -53.783924     -147.612427      -48.480518
 C         -53.193100     -148.124451      -49.684513
 C         -54.529266     -146.342087      -48.581123
 C         -54.096230     -148.122070      -50.841087
 C         -55.425308     -146.327881      -49.790310
 C         -54.588142     -146.663116      -51.101315
 H         -52.764771     -149.173676      -49.345959
 H         -52.425320     -147.462921      -50.062099
 H         -55.233955     -146.396255      -47.696198
 H         -53.765629     -145.614990      -48.461517
 H         -55.014763     -148.647110      -50.592495
 H         -53.692989     -148.476059      -51.818481
 H         -55.965080     -145.335403      -49.842136
 H         -56.203835     -147.015396      -49.725243
 H         -55.315598     -146.689499      -51.966583
 H         -53.799038     -145.892899      -51.220562
