20
 generated by VMD
 C         -68.986511     -193.960083      -64.500435
 N         -68.411049     -194.108429      -65.517181
 H         -71.022812     -193.947906      -67.428352
 H         -69.218315     -193.818192      -63.433540
 C         -71.921059     -193.326080      -67.279633
 C         -71.556923     -192.051941      -66.515739
 C         -73.264786     -193.909317      -67.357796
 C         -72.692963     -191.350601      -65.763588
 C         -74.343460     -193.025238      -66.535110
 C         -73.736595     -192.406357      -65.248512
 H         -70.975922     -191.380005      -67.134270
 H         -70.848724     -192.535141      -65.738701
 H         -73.624435     -193.989532      -68.368744
 H         -73.187340     -194.875900      -66.935722
 H         -73.226982     -190.670197      -66.463379
 H         -72.235626     -190.800766      -64.949699
 H         -75.191299     -193.596497      -66.262863
 H         -74.630081     -192.250916      -67.268112
 H         -74.550514     -191.978165      -64.716072
 H         -73.274918     -193.241791      -64.669586
