20
 generated by VMD
 C         -67.560890     -179.789948      -58.472748
 N         -68.268257     -179.868530      -59.405048
 H         -67.369690     -176.773560      -59.940434
 H         -66.972435     -179.793762      -57.554058
 C         -66.420570     -176.430023      -60.171032
 C         -66.075607     -175.655334      -61.414444
 C         -65.222313     -176.905502      -59.252609
 C         -64.952187     -174.586441      -61.188099
 C         -64.108826     -175.958603      -59.174694
 C         -63.701569     -175.342758      -60.534283
 H         -66.878128     -175.091782      -61.940639
 H         -65.764336     -176.401993      -62.136028
 H         -65.736984     -177.107956      -58.261440
 H         -65.002975     -177.899963      -59.592453
 H         -65.217728     -173.673492      -60.666569
 H         -64.587044     -174.335175      -62.232777
 H         -63.337772     -176.513412      -58.680664
 H         -64.423676     -175.069412      -58.570847
 H         -62.894909     -174.538269      -60.415134
 H         -63.233162     -176.036087      -61.213215
