20
 generated by VMD
 C         -78.969162     -209.372025      -76.445816
 N         -79.645264     -208.960968      -77.277290
 H         -77.621704     -209.308899      -73.115273
 H         -78.394615     -209.790726      -75.672142
 C         -78.020737     -209.938354      -72.322884
 C         -76.980530     -210.198105      -71.288322
 C         -79.103653     -210.880615      -72.581291
 C         -77.476852     -210.924789      -70.073570
 C         -79.468185     -211.536545      -71.329475
 C         -78.412346     -212.037720      -70.483582
 H         -76.397720     -209.322876      -70.966316
 H         -76.361275     -210.961670      -71.870880
 H         -80.022285     -210.516037      -73.100502
 H         -78.686050     -211.562149      -73.259338
 H         -78.043968     -210.275085      -69.397934
 H         -76.607910     -211.329361      -69.542854
 H         -80.277946     -212.293594      -71.671577
 H         -80.094482     -210.935089      -70.791168
 H         -78.975433     -212.430496      -69.639618
 H         -77.814697     -212.843277      -70.903847
