20
 generated by VMD
 C         -33.660103      -96.782913      -25.968044
 N         -34.798172      -96.685509      -26.108334
 H         -35.385101      -93.965294      -27.494509
 H         -32.584122      -96.974510      -25.871899
 C         -34.966755      -94.211960      -28.468435
 C         -36.019344      -94.747543      -29.369680
 C         -33.626980      -93.769081      -28.907192
 C         -36.058872      -94.040245      -30.738535
 C         -33.803722      -93.075951      -30.248512
 C         -34.588505      -93.748878      -31.320921
 H         -37.018364      -94.732857      -28.850348
 H         -35.850834      -95.773132      -29.572573
 H         -33.165615      -93.083336      -28.206085
 H         -33.099064      -94.653587      -28.827394
 H         -36.563946      -93.067848      -30.507254
 H         -36.683380      -94.654366      -31.405025
 H         -32.743683      -92.875259      -30.722635
 H         -34.320675      -92.171028      -29.998320
 H         -34.927502      -93.109612      -32.268234
 H         -34.192242      -94.651947      -31.679680
