20
 generated by VMD
 C         -79.497169     -205.215942      -70.922546
 N         -80.642136     -205.480835      -70.969299
 H         -77.034439     -202.990814      -69.174324
 H         -78.511963     -204.899902      -71.129822
 C         -75.960838     -202.997147      -69.522720
 C         -75.441856     -202.018906      -70.481140
 C         -75.159111     -204.167694      -69.035019
 C         -73.992287     -201.765793      -70.302269
 C         -73.627556     -204.053040      -69.184265
 C         -73.100365     -202.998520      -70.156265
 H         -76.019737     -201.068619      -70.478180
 H         -75.551064     -202.368195      -71.490021
 H         -75.511681     -204.518768      -68.019562
 H         -75.579620     -205.104172      -69.615067
 H         -73.894150     -201.220139      -69.365913
 H         -73.669647     -201.069824      -71.017502
 H         -73.230278     -205.039078      -69.511726
 H         -72.990128     -203.905777      -68.347717
 H         -72.035408     -202.821426      -70.022766
 H         -73.170227     -203.401169      -71.211945
