20
 generated by VMD
 C         -39.737614     -105.559555      -37.053192
 N         -40.407627     -106.448273      -37.424393
 H         -38.844563     -107.798470      -34.937824
 H         -39.081276     -104.880638      -36.486187
 C         -39.254898     -108.516426      -34.251453
 C         -38.332546     -109.127136      -33.207443
 C         -40.721550     -109.076668      -34.503357
 C         -39.150112     -109.349480      -31.862082
 C         -41.333023     -109.396858      -33.072021
 C         -40.461361     -110.028969      -32.084946
 H         -37.404312     -108.428711      -33.052223
 H         -38.078526     -110.139839      -33.654869
 H         -41.448650     -108.460175      -35.008034
 H         -40.543159     -110.053024      -35.101215
 H         -39.360935     -108.357674      -31.488430
 H         -38.498310     -109.871033      -31.141741
 H         -42.202671     -110.030548      -33.220066
 H         -41.682438     -108.503197      -32.647133
 H         -41.021961     -110.038429      -31.038960
 H         -40.322430     -111.074989      -32.370499
