20
 generated by VMD
 C         -38.317486     -115.034554      -35.414902
 N         -39.158432     -115.282082      -34.693439
 H         -41.459328     -115.901161      -36.987064
 H         -37.546486     -114.955154      -36.243233
 C         -42.461990     -115.405563      -37.085278
 C         -42.939663     -115.222549      -38.451164
 C         -43.401802     -115.245071      -35.988003
 C         -44.172390     -116.112656      -38.673973
 C         -44.792412     -115.950905      -36.313007
 C         -45.261585     -115.758163      -37.707108
 H         -42.144234     -115.595093      -39.145847
 H         -42.915955     -114.150551      -38.652393
 H         -43.039906     -115.882683      -35.121101
 H         -43.507851     -114.167618      -35.737034
 H         -43.826832     -117.121269      -38.571701
 H         -44.560253     -116.068932      -39.733776
 H         -45.450523     -115.569771      -35.527580
 H         -44.610668     -117.022171      -36.246613
 H         -46.162663     -116.354980      -38.029640
 H         -45.549995     -114.644249      -37.956917
