20
 generated by VMD
 C         -12.093112      -37.498573       -7.542356
 N         -11.003558      -37.815399       -7.660356
 H         -12.487882      -41.034317       -8.346076
 H         -13.657217      -40.470139       -7.255956
 C         -13.535875      -40.913723       -8.217815
 C         -14.303794      -42.235699       -8.195618
 C         -14.101968      -40.050079       -9.320912
 C         -15.701142      -41.872211       -7.838639
 C         -15.558762      -39.778236       -9.135181
 C         -16.387657      -41.037289       -8.898666
 H         -13.851462      -42.763664       -7.348538
 H         -14.245841      -42.721233       -9.173453
 H         -13.575639      -39.073643       -9.211420
 H         -13.847784      -40.555496      -10.276040
 H         -15.658977      -41.267967       -6.882827
 H         -16.234354      -42.810883       -7.745871
 H         -15.933204      -39.341095      -10.121708
 H         -15.807041      -39.082428       -8.382960
 H         -17.430164      -40.732735       -8.706470
 H         -16.394135      -41.593033       -9.824284
