20
 generated by VMD
 C         -31.870615      -76.302605      -24.561161
 N         -31.668768      -76.794357      -25.609591
 H         -28.914845      -76.772110      -21.937101
 H         -32.455181      -75.928429      -23.674273
 C         -28.558174      -77.758179      -22.165005
 C         -27.593103      -78.109528      -23.319130
 C         -28.495018      -78.651459      -21.004171
 C         -26.112394      -78.181305      -22.688448
 C         -27.028742      -78.679276      -20.411932
 C         -26.122805      -79.098274      -21.473135
 H         -27.697781      -77.236694      -24.088058
 H         -27.759689      -79.154770      -23.708162
 H         -29.142855      -78.340752      -20.230894
 H         -28.692089      -79.741837      -21.321102
 H         -25.743994      -77.158768      -22.354921
 H         -25.364168      -78.467407      -23.440758
 H         -27.015816      -79.208633      -19.411880
 H         -26.663866      -77.551743      -20.160784
 H         -25.135983      -79.421783      -21.189636
 H         -26.553392      -80.090828      -21.807737
