20
 generated by VMD
 C          -2.593440      -16.740145        2.795103
 N          -1.907951      -17.084208        1.988878
 H          -4.663623      -16.142988        0.451365
 H          -4.613014      -17.364130       -0.767179
 C          -5.274333      -16.846811       -0.043811
 C          -6.261497      -16.207670       -1.095381
 C          -5.837666      -17.892801        0.868723
 C          -7.271160      -17.274153       -1.655949
 C          -6.648258      -18.851242        0.072816
 C          -7.811012      -18.186203       -0.588454
 H          -5.736766      -15.676704       -1.945395
 H          -6.766577      -15.473847       -0.514256
 H          -4.997470      -18.390448        1.385290
 H          -6.514137      -17.273716        1.610150
 H          -6.859329      -17.873718       -2.478745
 H          -8.053268      -16.763613       -2.145569
 H          -7.059592      -19.583639        0.818067
 H          -6.090489      -19.439571       -0.676219
 H          -8.391413      -18.957365       -1.087762
 H          -8.530760      -17.738720        0.133017
