20
 generated by VMD
 C         -38.538025     -108.044800      -37.374470
 N         -38.948017     -107.148903      -38.015144
 H         -40.387817     -108.371841      -35.071854
 H         -38.275940     -108.715759      -36.536274
 C         -40.613468     -109.307777      -34.562878
 C         -39.625938     -110.428734      -34.413689
 C         -42.075985     -109.395279      -34.041222
 C         -39.769470     -111.233521      -33.184242
 C         -42.156597     -110.236526      -32.791584
 C         -41.295486     -111.554764      -32.816891
 H         -38.737644     -109.843033      -34.379246
 H         -39.801529     -110.919716      -35.335171
 H         -42.331158     -108.329918      -33.786953
 H         -42.746223     -109.781822      -34.791111
 H         -39.496197     -110.583633      -32.323074
 H         -39.172413     -112.264450      -33.158733
 H         -43.151554     -110.427170      -32.489571
 H         -41.799999     -109.728165      -31.923140
 H         -41.428608     -112.185921      -31.821878
 H         -41.682068     -112.192360      -33.552692
