20
 generated by VMD
 C          -3.473954      -19.491524        2.957672
 N          -3.534236      -18.390116        3.144069
 H          -5.511891      -20.397820        0.126615
 H          -6.379930      -21.326242       -1.114739
 C          -6.237869      -20.312931       -0.729255
 C          -5.591506      -19.407661       -1.822505
 C          -7.554685      -19.755356       -0.247542
 C          -6.584412      -19.056864       -2.948016
 C          -8.511525      -19.537779       -1.330760
 C          -7.955038      -18.638422       -2.385153
 H          -4.710454      -19.902687       -2.215962
 H          -5.165216      -18.423815       -1.414719
 H          -7.946639      -20.386564        0.616369
 H          -7.398388      -18.814405        0.331914
 H          -6.588608      -19.881824       -3.659034
 H          -6.173364      -18.165825       -3.523413
 H          -9.388005      -19.049545       -0.878038
 H          -8.873443      -20.501089       -1.742348
 H          -8.717218      -18.583633       -3.188589
 H          -7.908609      -17.566154       -2.079362
