20
 generated by VMD
 C          -1.991648       -8.578976        0.355961
 N          -2.025525       -9.109918       -0.592281
 H          -2.896369      -10.103755        2.683140
 H          -1.981343      -11.256459        3.630826
 C          -2.909318      -11.062770        3.085813
 C          -2.936551      -12.131264        1.990659
 C          -4.060463      -11.165070        4.032086
 C          -3.264866      -13.506251        2.567735
 C          -4.280035      -12.510544        4.600193
 C          -4.520258      -13.463189        3.423566
 H          -1.966951      -12.215097        1.454344
 H          -3.710776      -11.929165        1.269478
 H          -3.903112      -10.468407        4.874333
 H          -4.959209      -10.927697        3.529156
 H          -2.443560      -13.964043        3.100313
 H          -3.491893      -14.165958        1.717072
 H          -5.207490      -12.576748        5.251163
 H          -3.427971      -12.835516        5.242992
 H          -4.659121      -14.502602        3.844798
 H          -5.450706      -13.092752        2.918323
