20
 generated by VMD
 C         -78.222267     -204.284134      -69.401291
 N         -79.051796     -203.788757      -69.984802
 H         -76.217506     -202.677933      -67.882339
 H         -77.559402     -204.666473      -68.663208
 C         -75.333694     -202.212402      -68.452774
 C         -75.456772     -200.974503      -69.195473
 C         -74.213531     -203.089401      -69.049881
 C         -74.900520     -200.913544      -70.549507
 C         -72.947189     -202.248856      -69.509575
 C         -73.357552     -201.131485      -70.546455
 H         -74.982864     -200.184052      -68.599838
 H         -76.509460     -200.649979      -69.286018
 H         -73.800423     -203.853668      -68.304321
 H         -74.537560     -203.573669      -69.963081
 H         -75.077530     -199.868286      -70.922043
 H         -75.399872     -201.588654      -71.224190
 H         -72.217453     -202.929291      -69.918243
 H         -72.698738     -201.613953      -68.675232
 H         -72.867363     -200.239273      -70.401443
 H         -73.117111     -201.410202      -71.532768
