20
 generated by VMD
 C         -22.374626      -67.973343      -16.428410
 N         -21.499197      -67.947548      -15.678850
 H         -23.895426      -65.955124      -18.174616
 H         -23.379318      -68.088173      -16.874327
 C         -24.617092      -66.372162      -18.889027
 C         -23.926476      -67.006584      -20.084463
 C         -26.100433      -66.580933      -18.671268
 C         -24.466822      -68.349533      -20.290834
 C         -26.650043      -67.908035      -19.108166
 C         -25.974791      -68.409592      -20.363029
 H         -22.775919      -67.195358      -19.803114
 H         -23.979416      -66.421501      -20.991083
 H         -26.272898      -66.485809      -17.638636
 H         -26.600939      -65.833916      -19.277765
 H         -24.242109      -69.043350      -19.447586
 H         -23.998940      -68.864975      -21.190437
 H         -27.796673      -67.842560      -19.083488
 H         -26.390549      -68.623344      -18.263981
 H         -26.241474      -69.448174      -20.570940
 H         -26.315805      -67.850723      -21.222914
