20
 generated by VMD
 C         -40.953499     -101.062157      -32.873775
 N         -42.027077     -101.485123      -32.685047
 H         -38.519005     -102.990799      -32.488377
 H         -39.814152     -100.952255      -32.844608
 C         -37.536835     -102.764526      -32.044991
 C         -36.327431     -102.827675      -32.810535
 C         -37.454548     -102.805542      -30.536739
 C         -35.289059     -101.860367      -32.312656
 C         -36.147221     -102.157837      -30.049351
 C         -34.942432     -102.238197      -30.960630
 H         -36.585739     -102.551247      -33.847260
 H         -35.810432     -103.797585      -32.919289
 H         -38.223209     -102.236084      -30.004974
 H         -37.606510     -103.789253      -30.178726
 H         -35.838917     -100.839134      -32.390957
 H         -34.295403     -101.750710      -32.873650
 H         -36.056568     -102.715233      -29.041492
 H         -36.183552     -101.073914      -29.784613
 H         -34.092625     -101.546356      -30.599491
 H         -34.748760     -103.297775      -30.819866
