20
 generated by VMD
 C         -30.521139      -75.385170      -21.127531
 N         -31.663225      -75.268921      -20.993879
 H         -27.913671      -74.635780      -20.205229
 H         -29.568703      -75.641861      -21.631365
 C         -26.903610      -74.827400      -20.496479
 C         -26.605602      -75.961220      -21.337624
 C         -25.909922      -73.659279      -20.353739
 C         -26.120773      -75.570969      -22.703577
 C         -25.353888      -73.261864      -21.822893
 C         -24.853657      -74.575928      -22.538897
 H         -27.491980      -76.712227      -21.456686
 H         -25.903067      -76.619255      -20.787395
 H         -26.380226      -72.836525      -19.987148
 H         -25.174665      -74.062073      -19.710804
 H         -26.901014      -75.050491      -23.338394
 H         -25.807436      -76.484215      -23.240143
 H         -24.537251      -72.577667      -21.647303
 H         -26.151352      -72.804283      -22.401316
 H         -24.658447      -74.305099      -23.561554
 H         -23.975965      -74.872963      -21.980770
