20
 generated by VMD
 C         -56.949383     -150.761261      -47.968761
 N         -58.011490     -150.798630      -48.527683
 H         -54.401012     -148.888855      -47.348999
 H         -55.911003     -150.569550      -47.556694
 C         -54.224674     -148.465714      -48.373512
 C         -53.559113     -149.299271      -49.426243
 C         -54.600800     -147.136520      -48.703938
 C         -54.219852     -149.267990      -50.796089
 C         -55.392498     -147.071686      -50.015106
 C         -54.639965     -147.826584      -51.146946
 H         -53.589584     -150.277817      -49.045364
 H         -52.481163     -149.075607      -49.392143
 H         -55.234493     -146.608963      -47.937469
 H         -53.727058     -146.486328      -48.877151
 H         -55.124603     -149.830002      -51.019657
 H         -53.463711     -149.642105      -51.493935
 H         -55.436787     -145.932449      -50.129993
 H         -56.355690     -147.453873      -49.853725
 H         -55.304100     -147.805954      -52.069153
 H         -53.727028     -147.281265      -51.398285
