20
 generated by VMD
 C         -23.656891      -54.971958      -15.005525
 N         -22.875700      -54.611290      -15.758590
 H         -19.922312      -54.491138      -15.460549
 H         -24.046783      -55.273022      -14.010942
 C         -19.412737      -55.219284      -14.881206
 C         -19.031010      -54.820763      -13.531236
 C         -18.980642      -56.532234      -15.449717
 C         -18.857779      -55.841278      -12.446633
 C         -19.214167      -57.586807      -14.407708
 C         -18.581343      -57.254955      -13.012517
 H         -19.793709      -54.086426      -13.264636
 H         -18.010157      -54.322178      -13.570263
 H         -19.536411      -56.746410      -16.362524
 H         -17.812828      -56.587261      -15.620536
 H         -19.722435      -55.819401      -11.752913
 H         -18.070580      -55.558052      -11.711694
 H         -18.760563      -58.533142      -14.792030
 H         -20.249454      -57.819550      -14.327720
 H         -18.871052      -57.951302      -12.250038
 H         -17.491882      -57.375862      -13.075377
