20
 generated by VMD
 C         -29.940350      -79.313179      -25.916544
 N         -30.891144      -78.626602      -26.037609
 H         -29.175331      -82.482689      -25.651937
 H         -29.089085      -79.915520      -25.996939
 C         -28.988327      -82.950096      -24.636816
 C         -28.351931      -81.938766      -23.723724
 C         -29.851395      -83.977211      -24.022594
 C         -29.280827      -81.263412      -22.758097
 C         -30.981180      -83.285812      -23.281763
 C         -30.279730      -82.361137      -22.205488
 H         -27.861525      -81.209793      -24.310328
 H         -27.602325      -82.474686      -23.191023
 H         -30.409534      -84.509193      -24.877783
 H         -29.251669      -84.686523      -23.459436
 H         -29.895758      -80.527069      -23.356710
 H         -28.635521      -80.746605      -22.143469
 H         -31.572624      -84.154205      -22.781357
 H         -31.664286      -82.712761      -23.938057
 H         -31.144966      -81.871498      -21.618824
 H         -29.759808      -83.217087      -21.596853
