20
 generated by VMD
 C         -30.331768      -74.147881      -20.777748
 N         -30.101562      -75.208435      -20.414976
 H         -27.300623      -74.561165      -19.357077
 H         -30.370584      -73.074135      -21.221592
 C         -26.626947      -74.448898      -20.186235
 C         -26.164606      -75.599525      -20.991564
 C         -25.973248      -73.021904      -20.386112
 C         -26.010204      -75.197876      -22.526917
 C         -25.876532      -72.741974      -21.847691
 C         -25.170975      -73.916214      -22.647842
 H         -26.840635      -76.421890      -21.017044
 H         -25.206688      -75.935844      -20.640842
 H         -26.581743      -72.283081      -19.795750
 H         -24.980461      -73.100319      -19.827625
 H         -26.981516      -75.082321      -23.038555
 H         -25.485233      -76.048042      -23.018816
 H         -25.449207      -71.741936      -22.032232
 H         -26.867210      -72.481956      -22.090879
 H         -25.104586      -73.723419      -23.715137
 H         -24.183840      -73.991104      -22.196613
