20
 generated by VMD
 C         -79.409828     -206.275391      -73.320595
 N         -80.501907     -206.291534      -72.850906
 H         -77.958450     -204.811417      -70.781937
 H         -78.438065     -206.352707      -73.881012
 C         -76.966064     -205.204025      -70.662743
 C         -75.811745     -204.429047      -71.155212
 C         -76.648720     -206.571579      -70.128273
 C         -74.657631     -204.295120      -70.131279
 C         -75.492683     -206.556610      -69.117065
 C         -74.276062     -205.759262      -69.677750
 H         -76.059044     -203.368729      -71.513718
 H         -75.346855     -204.956024      -71.982315
 H         -77.653931     -207.016296      -69.847427
 H         -76.285759     -207.056244      -71.027100
 H         -74.918533     -203.878433      -69.188286
 H         -73.791489     -203.830963      -70.481270
 H         -75.238472     -207.657913      -68.989571
 H         -75.541885     -206.172531      -68.067429
 H         -73.506424     -205.626511      -68.851311
 H         -73.730682     -206.292374      -70.450218
