20
 generated by VMD
 C         -26.474199      -71.902412      -17.506721
 N         -26.743816      -72.710655      -16.705391
 H         -24.262352      -69.285156      -18.948601
 H         -26.360113      -71.119431      -18.151794
 C         -24.676067      -69.736565      -19.782331
 C         -23.967669      -70.877914      -20.332510
 C         -25.765903      -68.960251      -20.484043
 C         -25.137966      -71.770737      -21.130592
 C         -26.776224      -69.718254      -21.215504
 C         -26.029661      -70.854317      -21.996302
 H         -23.492315      -71.658882      -19.674133
 H         -23.165565      -70.656609      -21.077240
 H         -26.171278      -68.255547      -19.764339
 H         -25.325272      -68.336838      -21.214991
 H         -25.676996      -72.262062      -20.259691
 H         -24.685150      -72.541954      -21.806980
 H         -27.263220      -69.096359      -21.979319
 H         -27.434469      -70.094795      -20.495838
 H         -26.733831      -71.499443      -22.624109
 H         -25.466337      -70.256279      -22.766384
