20
 generated by VMD
 C         -12.062741      -25.452642       -0.402766
 N         -12.951767      -25.980396       -0.012946
 H          -9.063954      -26.905975       -2.327211
 H          -9.360431      -25.800964       -3.728332
 C          -8.584439      -26.246344       -3.105860
 C          -7.644083      -27.123308       -3.867553
 C          -7.949086      -24.990923       -2.509698
 C          -6.831701      -26.269636       -4.890573
 C          -7.266206      -24.161406       -3.519309
 C          -6.200468      -24.941469       -4.332260
 H          -8.057819      -28.007545       -4.367279
 H          -6.884613      -27.512316       -3.157796
 H          -8.634652      -24.428925       -1.914312
 H          -7.155802      -25.324627       -1.776149
 H          -7.647316      -26.017775       -5.571276
 H          -6.105919      -26.889221       -5.439345
 H          -6.785191      -23.262655       -3.069877
 H          -8.017375      -23.880077       -4.265898
 H          -5.736380      -24.301849       -5.090320
 H          -5.494492      -25.291847       -3.525435
