20
 generated by VMD
 C         -57.942287     -167.795380      -55.227085
 N         -56.907204     -168.190765      -54.974792
 H         -61.046146     -166.418900      -55.651508
 H         -58.901878     -167.465179      -55.643715
 C         -62.073132     -166.415070      -55.967064
 C         -62.421246     -167.222198      -57.109722
 C         -62.885445     -165.178482      -55.623333
 C         -63.909184     -167.386154      -57.312878
 C         -64.402863     -165.464569      -55.729382
 C         -64.696144     -166.140533      -57.112804
 H         -61.876499     -168.246811      -57.003494
 H         -62.016605     -166.726578      -58.046516
 H         -62.567829     -164.908234      -54.611347
 H         -62.557854     -164.358856      -56.201145
 H         -64.327263     -168.183105      -56.762024
 H         -64.146431     -167.655579      -58.344440
 H         -64.849823     -164.336899      -55.666145
 H         -64.850540     -166.021088      -54.831337
 H         -65.775787     -166.298615      -57.124485
 H         -64.447266     -165.284500      -57.756546
