20
 generated by VMD
 C         -22.540462      -52.596821      -11.975881
 N         -23.712379      -52.392731      -12.056118
 H         -20.077246      -53.943127      -14.356470
 H         -21.359020      -52.860367      -12.016044
 C         -18.974281      -53.734196      -14.192739
 C         -18.556999      -52.303665      -14.313511
 C         -18.158064      -54.607677      -13.426156
 C         -17.023191      -52.197433      -14.231553
 C         -17.165169      -53.923805      -12.491900
 C         -16.179970      -52.959721      -13.208272
 H         -19.019302      -51.819901      -13.494802
 H         -18.891445      -51.909584      -15.314718
 H         -18.813990      -55.301662      -12.847917
 H         -17.614483      -55.290668      -14.032973
 H         -16.811914      -51.133915      -14.166749
 H         -16.680719      -52.485828      -15.235636
 H         -16.604019      -54.723385      -11.936382
 H         -17.716135      -53.440990      -11.722171
 H         -15.704389      -52.331497      -12.427113
 H         -15.399102      -53.541729      -13.684938
