20
 generated by VMD
 C         -22.275921      -52.855354      -12.303691
 N         -23.377611      -52.417473      -12.541099
 H         -20.037800      -54.130779      -14.616841
 H         -21.379641      -53.148396      -11.979236
 C         -19.332462      -53.683132      -13.897187
 C         -18.748083      -52.302799      -13.946989
 C         -18.293484      -54.784756      -13.433081
 C         -17.266966      -52.368202      -14.221344
 C         -17.104858      -54.227348      -12.613803
 C         -16.331728      -53.121712      -13.285028
 H         -18.879168      -51.828342      -12.938966
 H         -19.202717      -51.697598      -14.750011
 H         -18.756285      -55.567261      -12.809878
 H         -18.027451      -55.249504      -14.417279
 H         -16.922636      -51.340179      -14.431053
 H         -17.185759      -52.874859      -15.221449
 H         -16.446747      -55.100937      -12.275695
 H         -17.497854      -53.806580      -11.685476
 H         -15.931778      -52.412170      -12.581188
 H         -15.510791      -53.507595      -13.875561
