20
 generated by VMD
 C         -50.757011     -129.642029      -45.941307
 N         -50.959461     -130.519760      -45.220490
 H         -48.051716     -131.156982      -44.245987
 H         -50.539860     -128.598282      -46.214714
 C         -48.150299     -131.258926      -43.116787
 C         -48.333870     -132.513336      -42.376141
 C         -47.981869     -130.024902      -42.322601
 C         -47.345505     -132.731415      -41.190083
 C         -46.960667     -130.159775      -41.181099
 C         -47.331387     -131.390457      -40.299492
 H         -48.210014     -133.370850      -43.022465
 H         -49.391296     -132.507812      -42.126537
 H         -47.687481     -129.226410      -42.981480
 H         -48.884651     -129.746735      -41.900127
 H         -46.286625     -132.924347      -41.495647
 H         -47.835274     -133.605148      -40.702751
 H         -46.978745     -129.286362      -40.558544
 H         -45.972393     -130.428711      -41.590153
 H         -46.921696     -131.720566      -39.345840
 H         -48.346554     -131.329468      -39.964363
