20
 generated by VMD
 C         -39.176418     -116.170471      -35.222542
 N         -39.426353     -115.416023      -34.398975
 H         -41.314369     -115.703247      -37.400906
 H         -38.866928     -116.955704      -35.983528
 C         -42.424637     -115.877953      -37.487743
 C         -43.029881     -115.616791      -38.797653
 C         -43.363098     -115.729080      -36.319462
 C         -44.354107     -116.382210      -38.953220
 C         -44.686440     -116.338264      -36.577892
 C         -45.334560     -115.971947      -37.889095
 H         -42.442371     -115.877213      -39.638172
 H         -43.147320     -114.574234      -38.872322
 H         -42.770096     -115.928123      -35.404766
 H         -43.406445     -114.635437      -36.161983
 H         -44.028275     -117.460922      -38.871780
 H         -44.731819     -116.252281      -39.942295
 H         -45.311554     -116.079399      -35.742683
 H         -44.707935     -117.368233      -36.469040
 H         -46.272419     -116.853889      -38.083206
 H         -45.660969     -114.924805      -38.008354
