20
 generated by VMD
 C         -79.171448     -205.775742      -73.519035
 N         -79.194130     -206.866959      -73.796623
 H         -78.678101     -205.903000      -70.446877
 H         -79.063202     -204.745895      -73.091171
 C         -77.624893     -206.202942      -70.478493
 C         -76.727974     -205.416367      -71.340553
 C         -77.130592     -207.434769      -69.771255
 C         -75.340622     -205.299210      -70.710922
 C         -75.773170     -207.252029      -69.250191
 C         -74.798019     -206.683502      -70.330040
 H         -77.182724     -204.402237      -71.551971
 H         -76.395348     -205.806595      -72.310623
 H         -77.831375     -207.807129      -68.972198
 H         -77.060654     -208.235657      -70.485748
 H         -75.358261     -204.828232      -69.692390
 H         -74.567757     -204.783234      -71.306175
 H         -75.347359     -208.134552      -68.836647
 H         -75.814392     -206.550232      -68.277443
 H         -73.858498     -206.538498      -69.729820
 H         -74.553513     -207.253983      -71.242584
