20
 generated by VMD
 C         -50.183994     -131.734985      -46.772541
 N         -50.096294     -132.021545      -47.910854
 H         -48.710197     -131.475540      -43.814392
 H         -50.027725     -131.561859      -45.684933
 C         -48.851978     -132.297104      -43.106651
 C         -49.576096     -133.463120      -43.459053
 C         -48.695415     -131.899887      -41.645840
 C         -49.157856     -134.687668      -42.685455
 C         -48.184143     -133.137436      -40.860317
 C         -48.881889     -134.433456      -41.151371
 H         -49.436707     -133.800507      -44.505928
 H         -50.609371     -133.317001      -43.346069
 H         -47.942432     -131.072769      -41.361919
 H         -49.595917     -131.512085      -41.199718
 H         -48.202274     -135.118698      -42.980217
 H         -49.834129     -135.550629      -42.768734
 H         -48.087219     -132.941589      -39.845112
 H         -47.095097     -133.113205      -41.059048
 H         -48.263779     -135.221832      -40.637459
 H         -49.922565     -134.253174      -40.831459
