20
 generated by VMD
 C          -6.980004      -23.339823        2.394859
 N          -7.131760      -22.433424        1.769007
 H          -8.335737      -23.211998       -0.887789
 H          -9.246698      -22.457613       -2.158976
 C          -8.245923      -22.607466       -1.737464
 C          -7.351305      -23.281456       -2.751286
 C          -7.667171      -21.243048       -1.286068
 C          -7.027803      -22.396351       -3.947082
 C          -7.312688      -20.292978       -2.478509
 C          -6.361787      -21.053953       -3.517005
 H          -7.871212      -24.174107       -3.156721
 H          -6.481771      -23.605549       -2.211845
 H          -8.295858      -20.792040       -0.512470
 H          -6.700623      -21.380283       -0.758751
 H          -7.947419      -22.223467       -4.521436
 H          -6.483521      -22.872917       -4.744794
 H          -6.918664      -19.313763       -2.192848
 H          -8.187219      -20.029453       -3.070526
 H          -6.087574      -20.370140       -4.322721
 H          -5.442656      -21.322645       -3.019081
