20
 generated by VMD
 C         -78.672081     -210.083481      -76.526321
 N         -77.629143     -210.299118      -77.006126
 H         -79.419395     -211.851593      -74.496208
 H         -79.619980     -209.845306      -76.066429
 C         -79.523094     -212.309692      -73.489174
 C         -78.195107     -212.409882      -72.847572
 C         -80.745575     -213.098160      -73.081604
 C         -78.378357     -212.724243      -71.397339
 C         -80.835274     -213.483795      -71.637695
 C         -79.412636     -213.782684      -71.227577
 H         -77.752724     -211.395554      -72.928520
 H         -77.527390     -213.200226      -73.330139
 H         -81.625748     -212.610519      -73.481400
 H         -80.732780     -214.091278      -73.661163
 H         -78.663803     -211.928009      -70.725258
 H         -77.423492     -213.087357      -71.029121
 H         -81.524467     -214.345123      -71.363815
 H         -81.231880     -212.641998      -71.075325
 H         -79.389351     -214.102509      -70.122604
 H         -79.081673     -214.755692      -71.672989
