20
 generated by VMD
 C         -59.387028     -168.424881      -55.567410
 N         -58.645817     -168.862167      -54.723919
 H         -62.089600     -169.363052      -55.994625
 H         -60.039772     -167.910416      -56.290775
 C         -62.672138     -168.549164      -56.387112
 C         -62.742622     -168.494720      -57.823349
 C         -62.915733     -167.281677      -55.560806
 C         -63.899296     -167.588608      -58.346397
 C         -64.115784     -166.533356      -56.079838
 C         -64.026085     -166.192383      -57.625435
 H         -62.950077     -169.548050      -58.242832
 H         -61.755447     -168.245300      -58.254326
 H         -63.106174     -167.761353      -54.505173
 H         -61.937092     -166.805023      -55.609955
 H         -64.914909     -168.004761      -58.262207
 H         -63.857967     -167.465240      -59.436234
 H         -64.388199     -165.634399      -55.534637
 H         -65.050575     -167.017136      -55.815540
 H         -64.967041     -165.641373      -57.823410
 H         -63.165730     -165.462677      -57.941246
