20
 generated by VMD
 C         -40.699917     -119.300774      -35.130566
 N         -39.701706     -118.686096      -35.201904
 H         -43.531494     -116.780975      -36.163242
 H         -41.705444     -119.603683      -35.150715
 C         -43.980610     -117.136162      -37.130524
 C         -43.067505     -117.573448      -38.213352
 C         -45.366787     -116.529716      -37.565598
 C         -43.717793     -118.364876      -39.291702
 C         -45.989944     -117.265312      -38.821152
 C         -44.930592     -117.670570      -39.839314
 H         -42.165173     -117.940475      -37.682404
 H         -42.609562     -116.684105      -38.669579
 H         -46.091766     -116.540359      -36.759186
 H         -45.216766     -115.438187      -37.913898
 H         -44.180222     -119.373390      -39.001694
 H         -42.894341     -118.559021      -39.985748
 H         -46.590954     -116.408096      -39.199291
 H         -46.674145     -118.183365      -38.378609
 H         -45.430351     -118.450638      -40.454269
 H         -44.556519     -116.753098      -40.425407
