20
 generated by VMD
 C         -12.175474      -31.475176       -8.619436
 N         -12.292253      -30.642704       -7.908544
 H         -11.029940      -34.882927       -7.814572
 H         -12.314583      -34.024002       -6.879430
 C         -11.528791      -34.793056       -6.807682
 C         -10.573240      -34.338573       -5.762767
 C         -12.289390      -36.120640       -6.504393
 C         -11.150791      -34.219803       -4.415085
 C         -12.903508      -35.876884       -5.091069
 C         -11.886913      -35.504303       -3.971794
 H         -10.115358      -33.405754       -6.109741
 H          -9.782090      -35.091812       -5.723480
 H         -13.053647      -36.336391       -7.248925
 H         -11.564824      -36.952007       -6.448840
 H         -11.856462      -33.392685       -4.517848
 H         -10.337982      -34.051418       -3.693707
 H         -13.543947      -36.738598       -4.784817
 H         -13.566090      -35.035439       -5.210908
 H         -12.371301      -35.326233       -3.014494
 H         -11.117920      -36.329712       -3.775919
