20
 generated by VMD
 C         -67.752319     -179.398636      -58.627647
 N         -68.322762     -180.196182      -57.993546
 H         -66.755287     -176.432938      -59.560745
 H         -67.150276     -178.778259      -59.244484
 C         -65.919518     -176.065643      -59.946011
 C         -66.088066     -174.981384      -61.038773
 C         -64.448128     -176.473434      -59.542278
 C         -65.052078     -173.865555      -60.909351
 C         -63.579269     -175.289490      -59.379318
 C         -63.613689     -174.390564      -60.549408
 H         -67.023766     -174.301239      -61.027477
 H         -66.166931     -175.478043      -62.033268
 H         -64.530136     -176.986053      -58.634457
 H         -64.169327     -177.139954      -60.315479
 H         -65.472519     -172.894333      -60.343678
 H         -64.870056     -173.429855      -61.939278
 H         -62.538788     -175.625229      -59.091030
 H         -64.016327     -174.658188      -58.597416
 H         -63.076977     -173.457214      -60.476086
 H         -63.122921     -174.832153      -61.435738
