20
 generated by VMD
 C         -67.982826     -178.829971      -58.165600
 N         -66.958427     -178.364929      -57.853901
 H         -65.597046     -176.068283      -58.544403
 H         -68.979523     -179.106689      -58.446667
 C         -65.189262     -175.753326      -59.530590
 C         -66.083168     -174.708282      -60.136955
 C         -63.708351     -175.844299      -59.835781
 C         -65.397896     -173.360901      -60.100441
 C         -63.117783     -174.409897      -59.661640
 C         -63.982052     -173.449158      -60.553619
 H         -66.970016     -174.679001      -59.385056
 H         -66.578369     -174.949036      -61.095303
 H         -63.369736     -176.556183      -59.013195
 H         -63.597729     -176.280884      -60.887543
 H         -65.474205     -172.799789      -59.191017
 H         -65.934395     -172.600922      -60.727116
 H         -62.152554     -174.177414      -60.021275
 H         -63.081261     -174.195312      -58.587791
 H         -63.433411     -172.433411      -60.549820
 H         -63.961590     -173.788193      -61.607433
