20
 generated by VMD
 C         -44.806892     -122.445831      -35.605156
 N         -45.017845     -123.317688      -34.876247
 H         -45.278301     -122.559608      -38.666134
 H         -44.888264     -121.654800      -36.298157
 C         -44.911942     -121.764412      -39.398838
 C         -43.485603     -121.416344      -39.677212
 C         -46.096485     -120.808060      -39.669083
 C         -43.346928     -120.347839      -40.748627
 C         -45.710358     -119.696625      -40.692158
 C         -44.281128     -119.201462      -40.488987
 H         -42.780533     -122.269104      -39.849335
 H         -43.048092     -120.924980      -38.683960
 H         -46.814491     -121.493385      -39.895142
 H         -46.380596     -120.305252      -38.774406
 H         -43.510300     -120.854439      -41.704475
 H         -42.326824     -119.944206      -40.894444
 H         -46.435707     -118.950645      -40.435028
 H         -45.957230     -120.118408      -41.708843
 H         -44.127285     -118.496788      -41.278156
 H         -44.162437     -118.726753      -39.569084
