20
 generated by VMD
 C         -21.571877      -65.840973      -16.969753
 N         -20.990124      -66.399605      -16.166159
 H         -24.016392      -63.920975      -18.160498
 H         -22.232876      -65.035866      -17.517872
 C         -24.492716      -64.915321      -18.405460
 C         -24.380127      -65.361481      -19.854340
 C         -25.329893      -65.653030      -17.506502
 C         -24.429991      -66.917465      -20.032413
 C         -25.230928      -67.265350      -17.623562
 C         -25.185635      -67.784584      -19.052006
 H         -23.454178      -64.971786      -20.265902
 H         -25.263769      -64.713158      -20.321247
 H         -25.338430      -65.323685      -16.446907
 H         -26.320368      -65.275185      -17.647139
 H         -23.446886      -67.308136      -19.962437
 H         -24.740086      -67.061348      -21.043453
 H         -26.103977      -67.626907      -17.051138
 H         -24.392332      -67.601265      -17.022722
 H         -24.778189      -68.803017      -19.129662
 H         -26.277849      -67.812752      -19.397470
