20
 generated by VMD
 C         -20.885267      -52.448658      -11.334856
 N         -21.475220      -52.879303      -10.473864
 H         -19.555094      -50.042099      -13.833275
 H         -20.661972      -51.844193      -12.477518
 C         -18.897524      -50.621422      -13.267338
 C         -18.433336      -51.924866      -13.712719
 C         -18.043884      -50.128139      -12.108590
 C         -16.994642      -51.872948      -14.337687
 C         -16.521605      -50.279675      -12.425055
 C         -16.057177      -51.569767      -13.159624
 H         -19.072813      -52.347252      -14.473646
 H         -18.479576      -52.648312      -12.883767
 H         -18.210386      -49.070469      -11.880466
 H         -18.309448      -50.768780      -11.199655
 H         -16.883968      -51.056435      -15.081333
 H         -16.748882      -52.858128      -14.707404
 H         -15.914880      -50.112061      -11.606405
 H         -16.353319      -49.433086      -13.133883
 H         -15.100964      -51.348782      -13.579715
 H         -15.875197      -52.384308      -12.505852
