20
 generated by VMD
 C         -12.344653      -32.185867       -8.645133
 N         -12.718082      -31.153887       -8.937176
 H         -10.392399      -34.576027       -7.338305
 H         -11.290214      -33.527416       -6.189605
 C         -11.106390      -34.608631       -6.421859
 C         -10.417047      -35.362522       -5.287646
 C         -12.390336      -35.408245       -6.832944
 C         -11.238997      -35.548393       -4.035703
 C         -13.305957      -35.630764       -5.612997
 C         -12.498766      -36.261841       -4.472449
 H          -9.604765      -34.709946       -4.997424
 H          -9.990604      -36.355629       -5.616552
 H         -12.830462      -34.776367       -7.595667
 H         -12.151530      -36.340343       -7.351303
 H         -11.451709      -34.599613       -3.541629
 H         -10.651471      -36.139599       -3.366716
 H         -14.117326      -36.303810       -5.894803
 H         -13.747866      -34.676376       -5.258151
 H         -13.117790      -36.398151       -3.625052
 H         -12.232329      -37.278912       -4.815753
