20
 generated by VMD
 C         -60.388622     -156.247894      -54.561047
 N         -60.231407     -155.377396      -55.383564
 H         -59.809631     -157.180344      -51.595345
 H         -60.453087     -157.190308      -53.981129
 C         -58.798550     -157.150574      -52.065117
 C         -58.082844     -155.857330      -52.201233
 C         -58.029903     -158.424515      -52.111259
 C         -57.110630     -155.699539      -51.005295
 C         -56.928173     -158.254257      -51.000126
 C         -56.091953     -156.832718      -50.977581
 H         -58.749855     -154.956360      -52.214104
 H         -57.467911     -155.905075      -53.079376
 H         -58.626499     -159.267105      -51.728138
 H         -57.574215     -158.601425      -53.088181
 H         -57.553082     -155.739609      -49.980183
 H         -56.500702     -154.806534      -51.193157
 H         -56.211014     -159.129929      -51.020771
 H         -57.423428     -158.236359      -50.094929
 H         -55.454735     -156.774460      -50.018364
 H         -55.541103     -156.723282      -51.895756
