20
 generated by VMD
 C         -40.071716     -116.884460      -34.539543
 N         -39.411346     -115.911957      -34.529552
 H         -41.432274     -115.922241      -37.952477
 H         -40.767048     -117.750206      -34.483925
 C         -42.497826     -116.184097      -37.930054
 C         -43.201885     -115.829872      -39.168953
 C         -43.240940     -115.922775      -36.656811
 C         -44.466557     -116.575531      -39.251167
 C         -44.567383     -116.595833      -36.641350
 C         -45.323311     -116.545021      -38.051785
 H         -42.541954     -115.978546      -40.016628
 H         -43.593731     -114.802757      -39.160267
 H         -42.655914     -116.245171      -35.833279
 H         -43.405727     -114.851494      -36.601055
 H         -44.372986     -117.638077      -39.596714
 H         -45.003895     -116.031975      -40.065792
 H         -45.287430     -116.101593      -35.989426
 H         -44.533237     -117.634605      -36.298622
 H         -46.277710     -117.251488      -37.986572
 H         -45.931004     -115.606697      -37.800621
