20
 generated by VMD
 C         -60.465462     -169.930161      -55.140358
 N         -59.338757     -169.739334      -55.419609
 H         -63.317955     -170.616623      -56.810524
 H         -61.489414     -169.998566      -54.830505
 C         -63.293201     -169.568207      -56.951782
 C         -62.455502     -169.112427      -58.110306
 C         -64.154099     -168.737778      -56.041767
 C         -63.106167     -167.827026      -58.725788
 C         -64.701393     -167.509521      -56.806072
 C         -63.673286     -166.848831      -57.725792
 H         -62.428001     -170.049896      -58.857796
 H         -61.447147     -168.816910      -57.832500
 H         -65.120964     -169.345276      -55.682209
 H         -63.750641     -168.291687      -55.116928
 H         -63.791920     -168.226624      -59.409527
 H         -62.406567     -167.377762      -59.415367
 H         -64.991653     -166.816605      -56.000931
 H         -65.725761     -167.892181      -57.309891
 H         -64.223007     -166.037766      -58.174980
 H         -62.845303     -166.249939      -57.262039
