20
 generated by VMD
 C         -58.784367     -161.291580      -56.537621
 N         -58.502399     -160.180847      -56.826828
 H         -59.331318     -164.484314      -55.119957
 H         -59.064941     -162.293655      -56.243298
 C         -59.978893     -163.807953      -54.602097
 C         -59.617992     -163.345566      -53.229744
 C         -61.380692     -163.820648      -54.948387
 C         -60.470978     -162.089569      -52.682034
 C         -61.914135     -162.506744      -54.541256
 C         -61.855011     -162.303024      -53.086113
 H         -58.568924     -163.094131      -53.251369
 H         -59.522026     -164.110229      -52.478794
 H         -61.461826     -163.926025      -55.984653
 H         -61.811855     -164.678955      -54.385208
 H         -59.939133     -161.209137      -53.139065
 H         -60.325417     -162.153793      -51.591522
 H         -62.994392     -162.408813      -54.802666
 H         -61.415287     -161.737442      -55.163391
 H         -62.474438     -161.365570      -52.798695
 H         -62.266884     -163.202240      -52.597263
