20
 generated by VMD
 C          -8.515038      -23.559097        2.291676
 N          -7.905305      -24.017242        3.099447
 H          -8.991438      -23.415945       -1.503625
 H          -9.264457      -22.433250       -3.024906
 C          -8.513584      -22.937939       -2.404640
 C          -7.715854      -23.886520       -3.242026
 C          -7.570040      -21.833767       -1.847202
 C          -7.113926      -23.171391       -4.436272
 C          -6.920913      -21.002951       -3.071372
 C          -6.193709      -21.943724       -4.083936
 H          -8.307702      -24.700377       -3.684421
 H          -7.011734      -24.432455       -2.600010
 H          -8.154059      -21.203979       -1.179398
 H          -6.716445      -22.280373       -1.327646
 H          -7.915871      -22.906473       -5.173887
 H          -6.491181      -23.893253       -5.066428
 H          -6.258361      -20.257942       -2.666484
 H          -7.678581      -20.457926       -3.651651
 H          -6.061768      -21.394222       -4.979944
 H          -5.283333      -22.386528       -3.705218
