20
 generated by VMD
 C         -30.887949      -75.726768      -22.749603
 N         -30.919846      -75.092552      -23.677727
 H         -28.961721      -78.462227      -21.589087
 H         -30.538958      -76.618797      -22.162159
 C         -28.023193      -77.975578      -21.621437
 C         -27.062176      -78.296005      -22.717304
 C         -27.478300      -77.259140      -20.435369
 C         -26.378391      -76.959686      -23.174267
 C         -26.842052      -75.958344      -20.828674
 C         -25.966991      -76.083786      -21.997328
 H         -27.560961      -78.710541      -23.610533
 H         -26.341986      -79.015053      -22.404650
 H         -28.201508      -77.128021      -19.579309
 H         -26.654732      -77.931160      -20.054468
 H         -27.155430      -76.395912      -23.688139
 H         -25.673059      -77.269356      -23.907469
 H         -26.465813      -75.473030      -19.910645
 H         -27.662584      -75.228645      -21.243670
 H         -25.707802      -75.104691      -22.381149
 H         -24.923021      -76.361588      -21.562021
