20
 generated by VMD
 C         -69.630333     -180.949646      -62.212204
 N         -70.313972     -180.019730      -62.423294
 H         -66.731194     -181.702057      -60.616539
 H         -69.029045     -181.856918      -61.929310
 C         -66.401917     -180.725815      -60.573517
 C         -64.879501     -180.472656      -60.385353
 C         -67.183189     -179.447098      -60.222980
 C         -64.445122     -179.190689      -61.066326
 C         -66.740410     -178.142990      -60.838451
 C         -65.216225     -178.017105      -60.514900
 H         -64.325981     -181.264328      -60.897308
 H         -64.738235     -180.298370      -59.296799
 H         -68.261452     -179.514557      -60.514511
 H         -67.215691     -179.335220      -59.175327
 H         -64.542191     -179.215622      -62.202198
 H         -63.333214     -179.183960      -60.992683
 H         -67.258949     -177.197830      -60.534458
 H         -66.690407     -178.238159      -61.950890
 H         -64.904854     -177.120346      -60.916874
 H         -65.149078     -177.877533      -59.435665
