20
 generated by VMD
 C         -66.644295     -177.909393      -56.937569
 N         -67.773880     -178.218719      -56.908215
 H         -64.467430     -176.130371      -59.752834
 H         -65.578796     -177.626862      -57.099094
 C         -64.289192     -175.142761      -59.606770
 C         -65.504555     -174.279709      -59.421814
 C         -63.156101     -174.581726      -60.366943
 C         -65.121468     -172.706711      -59.194576
 C         -63.059597     -172.953064      -60.332287
 C         -64.436890     -172.245895      -60.451462
 H         -65.951942     -174.647614      -58.418964
 H         -66.277466     -174.419128      -60.129349
 H         -62.138172     -174.942917      -59.986233
 H         -63.149643     -174.733810      -61.452045
 H         -64.528679     -172.494659      -58.298725
 H         -66.000267     -172.108353      -58.968109
 H         -62.451115     -172.692886      -61.193069
 H         -62.398689     -172.703400      -59.448837
 H         -64.293159     -171.209335      -60.468159
 H         -64.770142     -172.555267      -61.440662
