20
 generated by VMD
 C         -38.615665     -111.295135      -36.396694
 N         -38.331234     -110.205620      -36.496952
 H         -40.162277     -113.991318      -35.172264
 H         -38.743172     -112.390083      -36.546040
 C         -41.134335     -113.468109      -35.428921
 C         -41.779549     -113.804703      -36.688702
 C         -41.762234     -112.480965      -34.544369
 C         -43.212063     -114.135620      -36.433464
 C         -43.173618     -112.866989      -34.268181
 C         -43.906811     -113.019264      -35.672810
 H         -41.332447     -114.715645      -37.213963
 H         -41.560467     -112.998634      -37.389362
 H         -41.043777     -112.298607      -33.769985
 H         -41.779518     -111.540352      -35.058117
 H         -43.311981     -115.084732      -35.869289
 H         -43.609177     -114.059128      -37.420002
 H         -43.722122     -112.095833      -33.731937
 H         -43.367054     -113.682571      -33.608204
 H         -44.886002     -113.230255      -35.398659
 H         -43.926571     -111.937477      -36.036240
