20
 generated by VMD
 C          -1.741626       -9.532331       -0.121614
 N          -2.519817       -8.902471        0.390565
 H          -2.300984      -10.797444        2.637913
 H          -2.091012      -11.898170        3.943818
 C          -2.802863      -11.693465        3.095806
 C          -2.647631      -12.882650        2.054117
 C          -4.222151      -11.301754        3.257807
 C          -3.360835      -14.077937        2.690275
 C          -5.019943      -12.544724        3.830563
 C          -4.823447      -13.851488        3.018566
 H          -1.625975      -13.163677        1.781360
 H          -3.078571      -12.667671        1.088402
 H          -4.321411      -10.530662        4.005272
 H          -4.657052      -10.998368        2.343406
 H          -2.932362      -14.267955        3.655106
 H          -3.214442      -15.058668        2.222316
 H          -6.087987      -12.285012        3.925532
 H          -4.675112      -12.680875        4.863733
 H          -5.320911      -14.660731        3.588328
 H          -5.434947      -13.779195        2.076225
