20
 generated by VMD
 C         -19.884123      -58.826492      -17.282114
 N         -19.281818      -58.869896      -18.250357
 H         -22.578075      -59.688240      -16.204422
 H         -20.245073      -58.839687      -16.206717
 C         -22.722122      -60.726234      -16.200283
 C         -23.505081      -61.541725      -17.165586
 C         -22.661064      -61.238998      -14.791507
 C         -23.332649      -63.041401      -17.044897
 C         -22.372116      -62.831421      -14.681582
 C         -23.098452      -63.680916      -15.637805
 H         -23.043083      -61.201202      -18.165100
 H         -24.667440      -61.319839      -17.197056
 H         -21.884457      -60.742931      -14.298617
 H         -23.571230      -61.024494      -14.248784
 H         -22.459217      -63.271496      -17.642662
 H         -24.140053      -63.535706      -17.523851
 H         -22.586224      -63.133247      -13.683575
 H         -21.289377      -62.947136      -14.830695
 H         -22.589088      -64.625076      -15.786777
 H         -24.085443      -63.842274      -15.267505
