20
 generated by VMD
 C         -47.994827     -139.863358      -46.053898
 N         -46.835461     -139.622360      -45.785316
 H         -51.045990     -138.760376      -45.076550
 H         -48.899757     -140.383179      -46.292480
 C         -51.954735     -139.139328      -45.541759
 C         -52.052269     -139.389420      -46.959068
 C         -53.187935     -139.139267      -44.530693
 C         -53.052299     -140.586777      -47.232159
 C         -54.251663     -140.059036      -44.980049
 C         -54.443226     -140.169067      -46.590759
 H         -51.021126     -139.646149      -47.346512
 H         -52.187096     -138.479630      -47.571217
 H         -52.871502     -139.222107      -43.480640
 H         -53.550343     -138.137100      -44.518208
 H         -52.654007     -141.613190      -46.886780
 H         -53.057533     -140.586655      -48.358814
 H         -55.196842     -139.897491      -44.661259
 H         -53.963943     -141.033646      -44.567501
 H         -55.170082     -140.876175      -47.016590
 H         -54.591667     -139.165939      -46.993416
