20
 generated by VMD
 C         -60.270321     -156.247269      -54.603539
 N         -60.271873     -155.354446      -55.360699
 H         -59.814678     -157.130020      -51.497208
 H         -60.349487     -157.011810      -53.864601
 C         -58.854916     -157.209030      -52.095898
 C         -58.060150     -155.910522      -52.234356
 C         -58.025448     -158.468765      -52.058537
 C         -57.145401     -155.697220      -51.037857
 C         -56.905197     -158.306305      -50.964790
 C         -56.167458     -156.889709      -51.017796
 H         -58.901684     -155.127319      -52.306309
 H         -57.570869     -155.816513      -53.197277
 H         -58.728092     -159.338760      -52.015923
 H         -57.616383     -158.612122      -53.024448
 H         -57.834553     -155.478210      -50.215591
 H         -56.584995     -154.747467      -51.156860
 H         -56.168106     -159.179245      -50.845829
 H         -57.413872     -158.364502      -50.068165
 H         -55.485886     -156.785416      -50.139507
 H         -55.401844     -156.883514      -51.834953
