20
 generated by VMD
 C         -10.711123      -37.300503       -8.184176
 N         -10.447964      -36.701443       -7.261018
 H         -12.810928      -39.244026       -7.964971
 H         -14.221869      -39.324215       -6.816338
 C         -13.834073      -39.631313       -7.804729
 C         -13.699880      -41.169281       -7.874873
 C         -14.780376      -39.131439       -8.928470
 C         -15.092830      -41.727901       -7.555703
 C         -16.148018      -39.805725       -8.937908
 C         -16.094225      -41.314278       -8.702978
 H         -12.991448      -41.534473       -7.132438
 H         -13.360470      -41.381680       -8.865682
 H         -14.908943      -38.041294       -8.808813
 H         -14.334573      -39.353954       -9.878704
 H         -15.495791      -41.267250       -6.649371
 H         -14.977330      -42.818619       -7.417133
 H         -16.689039      -39.609833       -9.867274
 H         -16.815950      -39.395737       -8.149353
 H         -17.094645      -41.703129       -8.461454
 H         -15.878083      -41.755386       -9.645070
