20
 generated by VMD
 C         -35.049732      -97.251831      -26.401339
 N         -34.423931      -97.689484      -25.507610
 H         -35.460712      -94.081741      -27.621649
 H         -35.572731      -96.696594      -27.130606
 C         -35.272213      -93.997429      -28.690611
 C         -35.955742      -94.939331      -29.619957
 C         -33.891033      -93.709572      -28.981741
 C         -35.865211      -94.517517      -31.021690
 C         -33.777840      -93.252701      -30.442280
 C         -34.336643      -94.247902      -31.415003
 H         -36.998669      -95.034866      -29.157055
 H         -35.461315      -95.904953      -29.474468
 H         -33.410805      -92.931511      -28.357635
 H         -33.274506      -94.636696      -28.881868
 H         -36.330128      -93.458122      -31.162277
 H         -36.327869      -95.199753      -31.717783
 H         -32.727615      -93.026718      -30.823357
 H         -34.406227      -92.367325      -30.339157
 H         -34.338581      -93.827477      -32.298069
 H         -33.633213      -95.107239      -31.467997
