20
 generated by VMD
 C         -68.639915     -186.296997      -67.816345
 N         -68.227966     -187.331528      -67.525032
 H         -68.320465     -187.508865      -64.411453
 H         -69.028694     -185.341873      -68.191071
 C         -69.127037     -187.567978      -63.709824
 C         -68.922142     -187.352692      -62.262619
 C         -70.467781     -187.514755      -64.288094
 C         -69.904922     -188.203278      -61.380894
 C         -71.595345     -187.942444      -63.400726
 C         -71.417526     -187.833145      -61.859184
 H         -69.155113     -186.262619      -61.957680
 H         -67.868309     -187.547958      -61.935062
 H         -70.585808     -186.519150      -64.614632
 H         -70.498688     -188.024368      -65.229424
 H         -69.881729     -187.934845      -60.360565
 H         -69.603142     -189.274658      -61.508064
 H         -71.766396     -189.033646      -63.693714
 H         -72.460190     -187.281769      -63.632149
 H         -71.679352     -186.813736      -61.582817
 H         -71.923294     -188.561050      -61.289413
