20
 generated by VMD
 C         -70.284416     -182.894867      -64.497406
 N         -70.328026     -183.573196      -65.427437
 H         -68.280754     -180.513733      -62.605984
 H         -70.346153     -182.238159      -63.644230
 C         -67.656120     -180.849350      -61.830612
 C         -67.808151     -182.280640      -61.302494
 C         -66.941658     -179.683609      -60.998848
 C         -66.527412     -182.661362      -60.572441
 C         -65.634995     -180.270523      -60.516834
 C         -65.950661     -181.503510      -59.637062
 H         -67.937294     -182.913223      -62.178207
 H         -68.634232     -182.458115      -60.633148
 H         -66.756210     -178.910065      -61.696999
 H         -67.566490     -179.430054      -60.121296
 H         -65.723572     -182.745575      -61.346416
 H         -66.623253     -183.610275      -59.917404
 H         -65.191307     -179.456161      -59.901707
 H         -64.908409     -180.625809      -61.303932
 H         -65.057571     -181.912125      -59.172153
 H         -66.795349     -181.452957      -58.897419
