20
 generated by VMD
 C         -70.201363     -198.626816      -64.225235
 N         -70.014954     -198.281036      -65.310135
 H         -72.842010     -196.672409      -66.463219
 H         -70.684944     -198.910782      -63.281521
 C         -73.387756     -195.866272      -66.962921
 C         -73.285248     -194.465317      -66.598648
 C         -74.351105     -196.227158      -68.061066
 C         -73.228584     -193.397034      -67.683395
 C         -74.893387     -194.936951      -68.765205
 C         -73.696083     -193.928421      -69.024063
 H         -72.550446     -194.419128      -65.827446
 H         -74.186012     -194.264420      -65.851212
 H         -73.803680     -196.865921      -68.706757
 H         -75.134766     -196.876663      -67.792633
 H         -72.166702     -193.138092      -67.814804
 H         -73.724052     -192.498047      -67.373260
 H         -75.737831     -194.412567      -68.307579
 H         -75.232262     -195.306580      -69.801590
 H         -72.855789     -194.573013      -69.470230
 H         -73.812202     -193.176224      -69.678619
