20
 generated by VMD
 C         -24.661345      -70.054596      -16.415455
 N         -24.626184      -70.657784      -15.412739
 H         -23.735016      -67.587212      -19.128000
 H         -24.624485      -69.416435      -17.356079
 C         -24.425285      -68.236427      -19.608244
 C         -23.821941      -68.851776      -20.910460
 C         -25.836594      -67.743462      -19.518398
 C         -24.675020      -70.037079      -21.382107
 C         -26.608984      -68.993813      -19.902630
 C         -26.140516      -69.601097      -21.336784
 H         -22.799908      -69.083069      -20.645866
 H         -23.908783      -68.146126      -21.759945
 H         -26.148132      -67.347290      -18.595663
 H         -26.017815      -66.819260      -20.053066
 H         -24.627466      -70.875397      -20.670887
 H         -24.344606      -70.478050      -22.368921
 H         -27.741005      -68.727402      -19.786121
 H         -26.337175      -69.814285      -19.094385
 H         -26.821003      -70.392929      -21.602385
 H         -26.227518      -68.883652      -22.122475
