20
 generated by VMD
 C         -40.498421      -99.845528      -29.315741
 N         -39.868408     -100.164574      -28.412281
 H         -37.379742      -98.674339      -30.719776
 H         -41.046959      -99.708313      -30.208794
 C         -36.413269      -99.020576      -30.822239
 C         -35.850784      -99.227264      -32.139015
 C         -35.411095      -98.869514      -29.714148
 C         -34.795250      -98.119995      -32.399342
 C         -34.257996      -97.831078      -30.008814
 C         -33.680027      -98.119598      -31.324038
 H         -36.581070      -99.176064      -32.977566
 H         -35.350044     -100.174103      -32.176632
 H         -35.942905      -98.665062      -28.744291
 H         -34.871857      -99.772362      -29.615683
 H         -35.283234      -97.151108      -32.396145
 H         -34.411163      -98.433342      -33.434746
 H         -33.572964      -97.907059      -29.108667
 H         -34.556675      -96.780754      -29.998823
 H         -32.807270      -97.478798      -31.558950
 H         -33.321671      -99.168381      -31.314701
