20
 generated by VMD
 C         -19.571480      -58.210201      -17.179335
 N         -19.234329      -58.697193      -18.167805
 H         -22.907156      -59.558044      -16.305361
 H         -19.538612      -57.799507      -16.279018
 C         -22.963970      -60.656185      -16.239614
 C         -23.822716      -61.616421      -16.943811
 C         -22.288858      -61.116154      -14.904078
 C         -23.367577      -63.069664      -16.913565
 C         -21.990549      -62.628094      -14.790594
 C         -23.147551      -63.439938      -15.454173
 H         -23.748663      -61.271202      -18.017670
 H         -24.983418      -61.542057      -16.616575
 H         -21.414864      -60.464195      -14.628448
 H         -22.892324      -60.834770      -14.023551
 H         -22.470785      -63.214451      -17.505415
 H         -24.242550      -63.663528      -17.253199
 H         -21.792995      -62.999828      -13.709873
 H         -20.955214      -62.897923      -15.172304
 H         -22.959892      -64.528191      -15.373685
 H         -24.026888      -63.242317      -14.930741
