20
 generated by VMD
 C         -10.493862      -33.209335       -8.838337
 N         -11.316442      -33.673347       -9.389525
 H         -13.057661      -33.850719       -6.227242
 H         -13.050008      -34.515179       -4.655591
 C         -12.968911      -34.805019       -5.672025
 C         -11.637857      -35.481602       -5.906940
 C         -14.138666      -35.630001       -6.177354
 C         -11.587676      -36.942501       -5.554536
 C         -14.034059      -37.128296       -5.697807
 C         -12.678192      -37.724705       -6.183719
 H         -10.912885      -35.032948       -5.268875
 H         -11.265633      -35.378212       -6.923624
 H         -15.121308      -35.288330       -5.851411
 H         -14.159451      -35.551132       -7.281863
 H         -11.749036      -36.935329       -4.467868
 H         -10.566079      -37.297661       -5.795524
 H         -14.926897      -37.767338       -6.034412
 H         -14.033083      -37.129150       -4.655320
 H         -12.654613      -38.742432       -5.877011
 H         -12.569678      -37.767315       -7.291545
