20
 generated by VMD
 C         -50.218166     -145.194565      -44.831234
 N         -49.606602     -144.340317      -44.265919
 H         -52.767281     -142.672485      -45.760620
 H         -50.662762     -146.021744      -45.353367
 C         -53.314129     -142.610016      -46.726074
 C         -52.449848     -142.740936      -48.038334
 C         -54.667641     -141.924911      -46.730186
 C         -53.340813     -142.882004      -49.333302
 C         -55.403034     -142.164459      -48.029514
 C         -54.564018     -141.991821      -49.246044
 H         -51.630634     -143.487106      -47.906624
 H         -51.826809     -141.849213      -48.009274
 H         -55.417488     -142.122330      -45.939903
 H         -54.498520     -140.845642      -46.697456
 H         -53.687958     -143.995895      -49.425602
 H         -52.831989     -142.642853      -50.325409
 H         -56.324512     -141.554626      -48.073711
 H         -55.645260     -143.191010      -48.011089
 H         -55.236328     -142.240143      -50.098774
 H         -54.364208     -140.875839      -49.384785
