20
 generated by VMD
 C         -67.164207     -189.607910      -66.502998
 N         -66.259964     -189.618698      -67.203156
 H         -70.202789     -190.880035      -65.492607
 H         -68.101036     -189.770874      -65.924706
 C         -70.883453     -190.121552      -64.993240
 C         -72.009735     -190.957657      -64.365051
 C         -70.405609     -188.866013      -64.211792
 C         -73.099930     -189.980347      -64.002998
 C         -71.605827     -187.984192      -63.789169
 C         -72.720390     -188.735626      -63.187046
 H         -71.574852     -191.545456      -63.478477
 H         -72.510689     -191.680130      -65.002602
 H         -69.873482     -189.139954      -63.241116
 H         -69.814194     -188.222641      -64.803268
 H         -73.809837     -190.536942      -63.382004
 H         -73.472984     -189.634109      -64.992722
 H         -71.963028     -187.391724      -64.619576
 H         -71.360321     -187.311264      -63.008858
 H         -72.526779     -189.058456      -62.050007
 H         -73.551079     -188.063629      -63.085999
