20
 generated by VMD
 C         -13.417847      -43.298573       -6.497929
 N         -12.920312      -42.542919       -7.147033
 H         -14.851124      -44.638771       -8.616436
 H         -14.391662      -42.992245       -9.393104
 C         -15.137824      -43.864647       -9.376892
 C         -16.523006      -43.197716       -8.996846
 C         -14.951576      -44.675217      -10.695359
 C         -17.032585      -42.557617      -10.281586
 C         -15.571179      -43.979156      -11.858878
 C         -17.008392      -43.558296      -11.504133
 H         -16.463985      -42.510174       -8.195990
 H         -17.226831      -43.955280       -8.650707
 H         -13.886529      -44.797276      -10.825916
 H         -15.391019      -45.668053      -10.475976
 H         -16.482647      -41.670349      -10.563890
 H         -18.051279      -42.229954      -10.114922
 H         -15.606544      -44.518948      -12.762342
 H         -15.006737      -43.033695      -12.025576
 H         -17.409069      -43.034389      -12.388457
 H         -17.748331      -44.383968      -11.250080
