20
 generated by VMD
 C         -58.660751     -158.915237      -58.142910
 N         -58.818417     -159.653702      -57.332478
 H         -59.061913     -160.567123      -54.793133
 H         -58.540249     -158.171844      -58.903755
 C         -59.436699     -161.262772      -54.004501
 C         -58.773228     -161.512772      -52.667084
 C         -60.690170     -162.005005      -54.255478
 C         -59.582150     -161.561462      -51.357159
 C         -61.663277     -161.773758      -53.066334
 C         -61.016438     -162.252457      -51.735767
 H         -58.001915     -160.769913      -52.480770
 H         -58.038872     -162.405258      -52.890728
 H         -61.254951     -161.778625      -55.166340
 H         -60.388020     -163.054062      -54.351353
 H         -59.653614     -160.511215      -51.097969
 H         -59.037167     -162.157532      -50.609016
 H         -62.678272     -162.209076      -53.326630
 H         -61.772060     -160.638794      -53.045483
 H         -61.636993     -161.955139      -50.916531
 H         -60.778690     -163.351974      -51.659279
