20
 generated by VMD
 C          -7.094143      -23.447117        1.956258
 N          -7.307848      -22.361574        1.916828
 H          -8.641517      -23.336979       -1.142537
 H          -9.329129      -22.399010       -2.431008
 C          -8.400764      -22.716452       -1.946148
 C          -7.528803      -23.423393       -2.913561
 C          -7.717317      -21.552517       -1.348693
 C          -6.957301      -22.493166       -3.969805
 C          -7.191722      -20.562103       -2.350727
 C          -6.319007      -21.243069       -3.389581
 H          -8.233799      -24.230398       -3.292090
 H          -6.667246      -23.789902       -2.410850
 H          -8.273619      -20.963291       -0.579154
 H          -6.922246      -22.020674       -0.741459
 H          -7.721921      -22.129885       -4.648164
 H          -6.352937      -22.990208       -4.710867
 H          -6.693641      -19.649935       -1.949065
 H          -8.042730      -20.085243       -2.895183
 H          -5.988363      -20.552214       -4.190083
 H          -5.416945      -21.532059       -2.852162
