20
 generated by VMD
 C         -47.144283     -137.691574      -46.233917
 N         -47.190216     -136.963226      -47.108799
 H         -50.516422     -136.530060      -44.491604
 H         -47.035465     -138.382385      -45.408756
 C         -51.379395     -137.132523      -44.703655
 C         -51.370068     -138.054550      -46.011082
 C         -52.536476     -137.136200      -43.881741
 C         -52.165852     -139.389755      -45.803005
 C         -53.278625     -138.477066      -43.750553
 C         -53.496845     -139.177521      -45.087090
 H         -50.296577     -138.334045      -46.304211
 H         -51.824459     -137.603287      -46.831532
 H         -52.299160     -136.957001      -42.834023
 H         -53.247581     -136.384674      -44.257954
 H         -51.441441     -140.121735      -45.320019
 H         -52.595398     -139.670944      -46.790207
 H         -54.252769     -138.153152      -43.364380
 H         -52.637299     -139.071198      -43.079567
 H         -53.880569     -140.239410      -44.951824
 H         -54.042149     -138.587341      -45.749725
