20
 generated by VMD
 C          -6.833003      -23.303587        3.049680
 N          -6.839112      -22.644003        2.167260
 H          -7.836452      -22.649067       -0.584071
 H          -9.057101      -22.277393       -1.735592
 C          -7.958179      -22.230093       -1.542697
 C          -7.055134      -22.968067       -2.598328
 C          -7.539895      -20.712063       -1.433129
 C          -7.056825      -22.259161       -3.951404
 C          -7.543154      -20.084806       -2.805070
 C          -6.623136      -20.814257       -3.738908
 H          -7.468253      -23.981009       -2.826088
 H          -6.070835      -23.106932       -2.149811
 H          -8.294846      -20.240278       -0.841387
 H          -6.555708      -20.580429       -0.930530
 H          -8.040785      -22.351957       -4.445625
 H          -6.248773      -22.657499       -4.543056
 H          -7.174043      -19.063030       -2.732988
 H          -8.560446      -20.059591       -3.210784
 H          -6.640549      -20.304518       -4.732716
 H          -5.559221      -20.824841       -3.395610
