20
 generated by VMD
 C          -1.215946      -13.067696        1.043186
 N          -0.529880      -12.942208        0.154479
 H          -4.343149      -12.941461        1.686786
 H          -5.811919      -13.452950        0.698102
 C          -5.032978      -13.773376        1.381909
 C          -5.863812      -14.213328        2.581916
 C          -4.331998      -14.956800        0.625071
 C          -6.785744      -15.368211        2.296979
 C          -5.367591      -16.099733        0.412845
 C          -6.096224      -16.577461        1.723379
 H          -6.469552      -13.336239        2.830671
 H          -5.295949      -14.381566        3.467173
 H          -3.893023      -14.556815       -0.255937
 H          -3.542093      -15.332013        1.276359
 H          -7.585017      -14.998283        1.636311
 H          -7.294034      -15.577637        3.256539
 H          -4.816662      -16.956560        0.008153
 H          -6.122404      -15.839145       -0.381059
 H          -6.803511      -17.298531        1.407147
 H          -5.363534      -17.034370        2.344265
