20
 generated by VMD
 C         -78.671707     -209.621277      -77.330643
 N         -79.048927     -209.268723      -76.319260
 H         -78.267006     -210.114838      -73.632080
 H         -78.304596     -209.844650      -78.327904
 C         -78.354652     -210.896164      -72.842392
 C         -77.420990     -211.233566      -71.784805
 C         -79.514435     -211.874908      -72.982964
 C         -77.978630     -211.891907      -70.464539
 C         -80.182701     -212.282578      -71.654030
 C         -79.164421     -212.949661      -70.695938
 H         -76.852249     -210.340286      -71.444595
 H         -76.831657     -211.984360      -72.340462
 H         -80.277634     -211.603149      -73.774811
 H         -79.034790     -212.868332      -73.344772
 H         -78.475769     -211.163513      -69.798553
 H         -77.079659     -212.292465      -69.976784
 H         -81.174141     -212.862381      -71.878593
 H         -80.465385     -211.395920      -71.251572
 H         -79.649094     -213.135635      -69.688751
 H         -78.926521     -213.922195      -71.050232
