20
 generated by VMD
 C         -40.571720     -104.309937      -36.450989
 N         -39.629658     -104.988190      -36.635109
 H         -39.977905     -107.448036      -35.119854
 H         -41.287731     -103.586411      -36.060040
 C         -39.835236     -107.562187      -34.033932
 C         -38.698071     -106.803558      -33.397308
 C         -40.023952     -108.957039      -33.497585
 C         -38.533836     -106.983521      -31.900675
 C         -39.840023     -109.086128      -32.042614
 C         -38.481548     -108.410469      -31.575932
 H         -38.615574     -105.707558      -33.770336
 H         -37.742725     -107.265587      -33.768452
 H         -41.045250     -109.420853      -33.695545
 H         -39.314297     -109.708023      -33.870754
 H         -39.410889     -106.557480      -31.385639
 H         -37.588264     -106.498291      -31.511147
 H         -39.900177     -110.195793      -31.725992
 H         -40.630905     -108.616600      -31.428886
 H         -38.276569     -108.470619      -30.394770
 H         -37.581524     -108.805161      -32.038052
