20
 generated by VMD
 C         -59.863808     -157.019775      -56.708508
 N         -60.913036     -156.650955      -56.679169
 H         -59.683876     -157.244781      -53.378689
 H         -58.870045     -157.407822      -56.918400
 C         -59.053619     -157.835327      -52.645405
 C         -57.879700     -157.093246      -52.139034
 C         -59.100155     -159.383621      -52.487076
 C         -57.269859     -157.694595      -50.832741
 C         -58.531166     -159.862946      -51.158691
 C         -57.132912     -159.201218      -50.824471
 H         -58.012810     -156.032349      -51.898872
 H         -57.019192     -157.098312      -52.952328
 H         -60.165226     -159.849930      -52.541882
 H         -58.551456     -159.658463      -53.391438
 H         -57.984055     -157.271286      -49.932152
 H         -56.362713     -157.169342      -50.562260
 H         -58.516727     -160.887054      -50.857803
 H         -59.201637     -159.399216      -50.402946
 H         -56.976292     -159.407059      -49.657570
 H         -56.295334     -159.552383      -51.357716
