20
 generated by VMD
 C         -79.632065     -206.933563      -73.638885
 N         -80.287460     -206.013031      -73.600395
 H         -78.189896     -204.963882      -70.490784
 H         -79.232529     -207.912979      -73.624596
 C         -77.157356     -205.297302      -70.371315
 C         -76.069115     -204.444092      -70.905571
 C         -76.824608     -206.658997      -69.780144
 C         -74.628181     -204.691345      -70.253624
 C         -75.363541     -206.718262      -69.133179
 C         -74.313110     -206.117538      -70.005692
 H         -76.279968     -203.400757      -70.474815
 H         -75.989830     -204.300919      -72.019226
 H         -77.434807     -206.776779      -68.837715
 H         -77.178322     -207.408493      -70.517960
 H         -74.495934     -204.131653      -69.323105
 H         -73.791847     -204.390060      -70.874260
 H         -74.932396     -207.787811      -68.879219
 H         -75.499306     -206.265915      -68.135025
 H         -73.267570     -206.162445      -69.574265
 H         -74.256798     -206.775513      -70.875801
