20
 generated by VMD
 C         -18.130548      -48.569870       -7.341506
 N         -18.667295      -49.131908       -6.538615
 H         -16.212364      -48.052959      -10.196695
 H         -16.114237      -49.033382      -11.711061
 C         -16.253380      -48.067749      -11.269990
 C         -15.235426      -47.063919      -11.821133
 C         -17.697521      -47.652954      -11.699015
 C         -15.319526      -47.199123      -13.346127
 C         -17.847000      -47.369148      -13.204974
 C         -16.662123      -46.661308      -13.816730
 H         -14.198579      -47.073212      -11.486776
 H         -15.582655      -46.061996      -11.568357
 H         -18.435083      -48.412640      -11.339023
 H         -17.986847      -46.750568      -11.100045
 H         -15.158095      -48.226845      -13.666058
 H         -14.479381      -46.668953      -13.812652
 H         -18.671505      -46.740475      -13.355519
 H         -17.967667      -48.403393      -13.612321
 H         -16.736599      -46.752140      -14.892957
 H         -16.762026      -45.646416      -13.537763
