20
 generated by VMD
 C         -21.135454      -52.084412      -10.796058
 N         -21.457338      -53.152260      -10.571309
 H         -19.576996      -49.869015      -13.305623
 H         -20.718485      -50.845634      -10.696301
 C         -18.822460      -50.522617      -13.016568
 C         -18.322977      -51.790310      -13.712842
 C         -17.802603      -49.961243      -12.088897
 C         -16.912426      -51.881226      -14.173808
 C         -16.466610      -49.866356      -12.793535
 C         -15.919101      -51.252872      -13.212827
 H         -18.931602      -51.994076      -14.563719
 H         -18.446587      -52.608688      -12.960591
 H         -18.154613      -48.982132      -11.700628
 H         -17.818930      -50.577904      -11.149325
 H         -16.860340      -51.294140      -15.132882
 H         -16.739779      -52.884075      -14.586329
 H         -15.669220      -49.382259      -12.255410
 H         -16.641586      -49.219910      -13.753868
 H         -14.944791      -51.141544      -13.701779
 H         -15.809510      -51.875820      -12.291667
