20
 generated by VMD
 C         -76.784271     -203.289368      -66.688103
 N         -77.573349     -203.893066      -66.055939
 H         -75.164551     -200.593338      -68.220619
 H         -76.197922     -202.835648      -67.432915
 C         -74.618317     -199.956802      -68.854591
 C         -74.859306     -198.470688      -68.737572
 C         -73.756233     -200.595901      -69.859871
 C         -73.512627     -197.859543      -68.951927
 C         -73.037842     -199.566147      -70.782448
 C         -72.877968     -198.134964      -70.197441
 H         -75.275475     -198.246368      -67.775261
 H         -75.609177     -198.122696      -69.470734
 H         -73.072617     -201.143890      -69.171364
 H         -74.397148     -201.156647      -70.502930
 H         -72.752892     -198.163376      -68.186897
 H         -73.671387     -196.786652      -68.809570
 H         -73.711067     -199.485046      -71.676643
 H         -72.074409     -199.948700      -71.147270
 H         -71.819008     -197.959305      -70.236755
 H         -73.353195     -197.366806      -70.959419
