20
 generated by VMD
 C         -30.138147      -92.726105      -25.364536
 N         -30.899605      -93.445465      -25.810604
 H         -32.814468      -91.473572      -26.492325
 H         -29.373943      -92.090080      -24.806101
 C         -33.598644      -91.291344      -27.231241
 C         -34.857635      -92.134239      -27.422388
 C         -33.159641      -90.508392      -28.528196
 C         -35.862846      -91.620132      -28.463858
 C         -34.371185      -89.987823      -29.421721
 C         -35.352612      -91.121201      -29.782150
 H         -35.373554      -92.069542      -26.384369
 H         -34.464428      -93.132111      -27.486620
 H         -32.680180      -89.577667      -28.167797
 H         -32.496220      -91.090614      -29.183022
 H         -36.601891      -90.885094      -28.078182
 H         -36.430256      -92.447464      -28.806648
 H         -33.838486      -89.689362      -30.328527
 H         -34.739788      -89.058960      -28.968603
 H         -36.203098      -90.712158      -30.438356
 H         -34.810043      -91.843353      -30.426733
