20
 generated by VMD
 C         -59.502052     -152.429321      -50.960442
 N         -60.415573     -153.110580      -50.782639
 H         -57.189095     -151.824829      -49.223312
 H         -58.611534     -151.780899      -51.084961
 C         -56.173492     -151.525986      -49.533058
 C         -55.059349     -152.426926      -49.829044
 C         -55.686668     -150.056519      -49.387573
 C         -54.183205     -152.095245      -51.006760
 C         -55.018604     -149.726196      -50.715595
 C         -53.812958     -150.666626      -50.979183
 H         -55.425453     -153.399979      -49.844864
 H         -54.375420     -152.384247      -48.921955
 H         -56.602352     -149.478546      -49.236141
 H         -55.057255     -149.874039      -48.483185
 H         -54.645115     -152.406952      -51.975700
 H         -53.249500     -152.613297      -50.940750
 H         -54.729397     -148.593658      -50.574688
 H         -55.683872     -149.768036      -51.517632
 H         -53.592537     -150.316193      -52.032726
 H         -53.133129     -150.432281      -50.236542
