20
 generated by VMD
 C         -57.205669     -163.174408      -56.489521
 N         -57.169182     -162.327911      -57.313591
 H         -59.611816     -165.069809      -54.905418
 H         -57.190647     -163.942902      -55.753471
 C         -60.613499     -164.768204      -54.736290
 C         -61.285194     -164.778885      -53.362518
 C         -61.500645     -164.441925      -55.957462
 C         -62.492538     -163.831711      -53.124535
 C         -62.952995     -163.795044      -55.620090
 C         -63.576569     -164.070038      -54.218590
 H         -60.589924     -164.895721      -52.585373
 H         -61.771957     -165.751297      -53.359669
 H         -60.821247     -163.806702      -56.613708
 H         -61.689598     -165.377518      -56.519524
 H         -62.113884     -162.797516      -53.305477
 H         -62.975006     -163.903900      -52.166077
 H         -63.732624     -164.105255      -56.294758
 H         -63.103729     -162.757263      -55.947895
 H         -64.390617     -163.419144      -53.974369
 H         -63.767357     -165.058670      -54.139557
