20
 generated by VMD
 C         -73.924637     -200.600357      -65.521187
 N         -72.926323     -201.132156      -65.202362
 H         -73.815575     -198.086792      -66.550812
 H         -74.824234     -200.266968      -65.943146
 C         -73.806282     -197.486328      -67.453270
 C         -74.178886     -196.061935      -67.416847
 C         -73.095116     -197.990387      -68.692184
 C         -73.648476     -195.222488      -68.473793
 C         -73.760139     -197.372559      -69.921997
 C         -73.921196     -195.843918      -69.886169
 H         -73.748878     -195.610046      -66.487259
 H         -75.216019     -196.060547      -67.162933
 H         -71.968704     -197.872040      -68.706795
 H         -73.222725     -199.060883      -68.728958
 H         -72.544266     -195.130264      -68.324493
 H         -74.122276     -194.215561      -68.469505
 H         -74.733994     -197.866989      -70.086517
 H         -73.194725     -197.678314      -70.735397
 H         -73.147720     -195.431458      -70.639267
 H         -74.917358     -195.730942      -70.326111
