20
 generated by VMD
 C         -32.215927      -92.951881      -25.916857
 N         -32.480858      -94.032249      -25.568903
 H         -33.945797      -94.996544      -28.680931
 H         -31.996546      -91.920227      -26.346523
 C         -34.101677      -93.955635      -28.883898
 C         -35.288433      -93.373222      -28.185471
 C         -33.652409      -93.104378      -30.048275
 C         -35.358021      -91.804893      -27.966133
 C         -33.579414      -91.609985      -29.647581
 C         -34.994095      -91.055588      -29.252535
 H         -35.440868      -93.901505      -27.251490
 H         -36.243210      -93.603157      -28.699846
 H         -32.675358      -93.393021      -30.496073
 H         -34.475731      -93.283333      -30.749527
 H         -34.620174      -91.548080      -27.226448
 H         -36.390823      -91.395302      -27.675043
 H         -33.154530      -91.008842      -30.458761
 H         -32.817329      -91.493561      -28.782423
 H         -34.693375      -90.049629      -29.020744
 H         -35.771450      -91.200645      -29.974020
