20
 generated by VMD
 C         -29.589306      -89.498337      -25.060968
 N         -29.169243      -89.343925      -26.102907
 H         -32.009121      -90.688210      -26.781069
 H         -30.155348      -89.772858      -24.156147
 C         -32.849384      -90.667709      -27.486542
 C         -34.183640      -91.036369      -26.939470
 C         -32.819450      -89.530365      -28.530399
 C         -35.007519      -89.830231      -26.554291
 C         -33.521252      -88.278214      -28.010900
 C         -34.898243      -88.618073      -27.456280
 H         -34.269203      -91.814438      -26.172087
 H         -34.786816      -91.495827      -27.810333
 H         -31.770004      -89.419609      -28.902594
 H         -33.385326      -89.926865      -29.405205
 H         -34.537582      -89.388054      -25.579117
 H         -36.100506      -90.004837      -26.394787
 H         -33.592159      -87.446060      -28.779074
 H         -32.883369      -87.862297      -27.158457
 H         -35.302269      -87.761147      -26.966021
 H         -35.552799      -88.572357      -28.244780
