20
 generated by VMD
 C         -21.136227      -52.051464      -10.588045
 N         -21.476688      -53.183445      -10.625708
 H         -19.477783      -50.000515      -13.569188
 H         -21.033297      -50.911144      -10.945043
 C         -18.673683      -50.495338      -13.079387
 C         -18.425978      -51.826668      -13.690920
 C         -17.761976      -49.914490      -12.027997
 C         -16.911015      -51.869701      -14.196535
 C         -16.436581      -49.791714      -12.802314
 C         -15.923728      -51.166069      -13.240294
 H         -19.126413      -52.000355      -14.496315
 H         -18.633823      -52.622326      -12.955517
 H         -18.061813      -48.875427      -11.840185
 H         -17.660393      -50.530636      -11.069248
 H         -16.836004      -51.349773      -15.183130
 H         -16.512115      -52.876984      -14.231445
 H         -15.788186      -49.273064      -12.146736
 H         -16.545933      -49.102367      -13.748919
 H         -14.981834      -51.045822      -13.754153
 H         -15.683841      -51.799721      -12.375613
