20
 generated by VMD
 C         -10.233808      -24.951784       -0.685378
 N         -11.346665      -24.799955       -0.574081
 H          -6.291335      -25.303291       -1.091992
 H          -8.093911      -25.177273       -1.180217
 C          -7.124332      -25.050234       -1.752986
 C          -6.911419      -25.878260       -3.008199
 C          -6.913177      -23.602558       -1.990071
 C          -7.911253      -25.464823       -4.122965
 C          -7.848309      -23.145237       -3.078296
 C          -7.855464      -23.988096       -4.350399
 H          -6.889641      -26.933237       -2.779635
 H          -5.833419      -25.714853       -3.391925
 H          -7.048538      -23.062201       -1.054133
 H          -5.906819      -23.411997       -2.289616
 H          -8.922517      -25.870661       -3.922013
 H          -7.647717      -25.892292       -5.089105
 H          -7.539324      -22.109665       -3.281013
 H          -8.862817      -23.173035       -2.698957
 H          -8.756254      -23.670280       -4.904073
 H          -6.902888      -23.830164       -4.864249
