20
 generated by VMD
 C         -57.711479     -150.714188      -48.631954
 N         -58.269291     -151.755173      -48.553246
 H         -54.765648     -149.211182      -47.347733
 H         -57.146229     -149.748413      -48.633938
 C         -54.609245     -148.911285      -48.349171
 C         -53.842094     -149.868393      -49.326618
 C         -54.714291     -147.448502      -48.831173
 C         -54.322781     -149.558563      -50.793846
 C         -55.076962     -147.249420      -50.335194
 C         -54.191326     -148.107559      -51.269650
 H         -54.029305     -150.894852      -49.277004
 H         -52.826336     -149.803589      -49.178131
 H         -55.407372     -146.966827      -48.022198
 H         -53.767090     -146.931046      -48.669884
 H         -55.377205     -149.823563      -50.983299
 H         -53.740841     -150.240585      -51.390335
 H         -55.108006     -146.049103      -50.490105
 H         -56.029613     -147.700974      -50.439133
 H         -54.808800     -148.146515      -52.205509
 H         -53.133575     -147.803818      -51.399837
