20
 generated by VMD
 C         -68.167564     -192.884140      -66.245903
 N         -68.598083     -193.112610      -67.334312
 H         -69.998466     -189.695465      -65.339104
 H         -67.920998     -192.530273      -65.264847
 C         -71.001312     -190.199051      -65.223610
 C         -71.579369     -190.941925      -66.400795
 C         -71.609222     -190.380463      -63.893936
 C         -72.519447     -192.045273      -66.027466
 C         -73.083817     -190.479248      -63.981487
 C         -73.565201     -191.535324      -64.933960
 H         -70.737328     -191.444931      -66.969498
 H         -72.109367     -190.287521      -67.121376
 H         -71.151810     -191.183670      -63.338898
 H         -71.386810     -189.499268      -63.252209
 H         -72.073997     -192.864563      -65.549065
 H         -73.057823     -192.301102      -66.913361
 H         -73.446518     -189.472992      -64.366219
 H         -73.461258     -190.574722      -62.924015
 H         -73.953850     -192.388123      -64.419792
 H         -74.563484     -190.998566      -65.271912
