20
 generated by VMD
 C         -57.985214     -168.315170      -55.038151
 N         -56.815788     -168.564987      -54.894405
 H         -61.532787     -167.398651      -55.458054
 H         -59.027298     -168.140991      -55.337456
 C         -62.281700     -166.989441      -56.073608
 C         -62.700806     -167.592834      -57.358601
 C         -63.099594     -165.768982      -55.581436
 C         -64.160873     -167.462189      -57.748135
 C         -64.519089     -165.770203      -55.963474
 C         -64.692650     -166.104111      -57.445660
 H         -62.454777     -168.694260      -57.427437
 H         -62.115974     -167.030670      -58.040955
 H         -63.068081     -165.587891      -54.457626
 H         -62.649902     -164.840591      -56.046249
 H         -64.726929     -168.197006      -57.135899
 H         -64.257423     -167.754715      -58.824722
 H         -65.022804     -164.759933      -55.969360
 H         -64.953819     -166.567932      -55.414669
 H         -65.739075     -165.994247      -57.622261
 H         -64.283424     -165.278671      -58.005440
