20
 generated by VMD
 C         -10.800563      -36.441792       -7.788218
 N          -9.814705      -36.986534       -7.586570
 H         -13.096636      -38.737305       -8.139961
 H         -14.285814      -38.739887       -6.955351
 C         -14.002614      -39.275513       -7.829793
 C         -13.614466      -40.739471       -7.647215
 C         -15.025506      -39.027912       -8.903057
 C         -14.905139      -41.628536       -7.602117
 C         -16.288872      -39.898418       -8.648097
 C         -15.908090      -41.344688       -8.698929
 H         -13.126635      -40.955029       -6.726891
 H         -13.049805      -41.020943       -8.526438
 H         -15.275234      -37.981136       -8.932043
 H         -14.572866      -39.349758       -9.878851
 H         -15.409669      -41.491459       -6.643752
 H         -14.559003      -42.696690       -7.653553
 H         -16.975727      -39.622833       -9.378745
 H         -16.671223      -39.565960       -7.628517
 H         -16.731573      -41.962791       -8.481673
 H         -15.518831      -41.623711       -9.672238
