20
 generated by VMD
 C         -22.351324      -67.564186      -16.154560
 N         -21.209772      -67.344818      -16.087780
 H         -23.852922      -65.533684      -18.263376
 H         -23.366838      -67.718140      -16.063560
 C         -24.535107      -66.296646      -18.678358
 C         -23.844034      -66.866982      -19.890095
 C         -25.982403      -66.414101      -18.396721
 C         -24.467920      -68.081749      -20.422842
 C         -26.406258      -67.791565      -18.783533
 C         -25.962902      -68.116989      -20.258799
 H         -22.860191      -67.060387      -19.641466
 H         -23.989950      -66.051132      -20.653984
 H         -26.286669      -66.237465      -17.307711
 H         -26.543915      -65.640991      -18.894110
 H         -23.966825      -68.988914      -20.001392
 H         -24.152355      -68.100723      -21.453484
 H         -27.512239      -67.745735      -18.778360
 H         -26.198053      -68.641037      -18.209816
 H         -26.319099      -69.127907      -20.579670
 H         -26.454092      -67.351028      -20.832706
