20
 generated by VMD
 C         -56.130054     -150.091248      -47.366093
 N         -57.103779     -150.229095      -46.784477
 H         -53.328823     -147.958450      -47.399780
 H         -55.181625     -149.947342      -47.814205
 C         -53.760948     -147.667282      -48.411236
 C         -53.163471     -148.237457      -49.697853
 C         -54.625446     -146.409119      -48.558796
 C         -54.162510     -148.267136      -50.833076
 C         -55.429993     -146.305939      -49.792824
 C         -54.688988     -146.861847      -50.980946
 H         -52.801987     -149.254364      -49.371998
 H         -52.348526     -147.593384      -50.069538
 H         -55.381363     -146.451843      -47.827763
 H         -53.914661     -145.611374      -48.365288
 H         -55.035561     -148.912689      -50.598660
 H         -53.758884     -148.537354      -51.804287
 H         -55.632523     -145.288361      -49.955410
 H         -56.424419     -146.975861      -49.754192
 H         -55.234203     -146.763382      -51.899357
 H         -53.810242     -146.217484      -51.048138
