20
 generated by VMD
 C         -22.612112      -68.320595      -16.668829
 N         -22.446064      -68.837929      -15.625160
 H         -24.051193      -66.476509      -18.112783
 H         -22.576591      -67.789772      -17.560270
 C         -24.605745      -66.642464      -18.986090
 C         -24.014320      -67.361305      -20.173849
 C         -26.072765      -66.729065      -19.134365
 C         -24.518093      -68.751953      -20.404596
 C         -26.603653      -68.199944      -19.168121
 C         -25.981863      -68.879028      -20.475113
 H         -22.909307      -67.402542      -20.093538
 H         -24.192608      -66.703880      -21.105204
 H         -26.403492      -66.272171      -18.237999
 H         -26.316347      -66.152489      -20.075920
 H         -24.228277      -69.429222      -19.657049
 H         -23.983526      -69.162354      -21.294136
 H         -27.682100      -68.193886      -19.050449
 H         -26.148182      -68.729874      -18.333473
 H         -26.249485      -69.955177      -20.579145
 H         -26.534828      -68.379326      -21.258467
