20
 generated by VMD
 C         -13.407340      -30.843393       -8.307716
 N         -13.126215      -30.045681       -9.018851
 H         -11.348386      -31.852903       -6.176771
 H         -11.537641      -31.981327       -4.410367
 C         -11.190868      -32.569496       -5.312536
 C          -9.717544      -32.957470       -5.152046
 C         -12.078951      -33.842781       -5.510237
 C          -9.643126      -33.994614       -3.966025
 C         -12.001171      -34.828556       -4.373322
 C         -10.564901      -35.234482       -4.184829
 H          -9.058176      -32.139786       -4.970189
 H          -9.287354      -33.462307       -6.051456
 H         -13.144581      -33.571312       -5.624739
 H         -11.816459      -34.300442       -6.466293
 H          -9.985888      -33.437366       -3.132752
 H          -8.675488      -34.333351       -3.724447
 H         -12.665030      -35.739922       -4.508111
 H         -12.355639      -34.338291       -3.520908
 H         -10.446276      -35.915352       -3.303359
 H         -10.302783      -35.861759       -5.000216
