20
 generated by VMD
 C         -19.812136      -61.735580      -16.285385
 N         -20.110975      -61.102421      -17.210804
 H         -21.686592      -63.000645      -17.530603
 H         -19.295666      -62.287811      -15.393495
 C         -22.596983      -63.569077      -17.412430
 C         -23.563654      -63.632801      -18.624910
 C         -23.175686      -63.886337      -16.019056
 C         -24.659374      -64.775696      -18.606241
 C         -24.207024      -65.042999      -16.183441
 C         -25.291723      -64.710770      -17.216097
 H         -22.978218      -63.737747      -19.491127
 H         -24.104336      -62.683434      -18.601154
 H         -22.381304      -64.009033      -15.414674
 H         -23.729876      -63.018368      -15.606995
 H         -24.347578      -65.767189      -18.896448
 H         -25.378254      -64.506874      -19.356722
 H         -24.765757      -65.066956      -15.229815
 H         -23.662840      -66.020157      -16.364706
 H         -26.235523      -65.216843      -17.234657
 H         -25.513285      -63.608009      -17.160290
