20
 generated by VMD
 C         -68.616447     -194.999237      -65.488518
 N         -68.760674     -195.087784      -64.334656
 H         -71.228302     -194.496368      -67.421570
 H         -68.385689     -194.926010      -66.604492
 C         -72.044876     -193.836365      -67.194298
 C         -71.788246     -192.492691      -66.574020
 C         -73.415894     -194.360352      -67.613197
 C         -72.987732     -192.050354      -65.706375
 C         -74.565361     -193.600830      -66.885536
 C         -74.331802     -192.132812      -66.459373
 H         -71.634140     -191.790970      -67.401894
 H         -71.012955     -192.685226      -65.774811
 H         -73.591560     -194.113235      -68.601227
 H         -73.343117     -195.406555      -67.272667
 H         -73.005974     -191.010895      -65.307266
 H         -73.043129     -192.777847      -64.887405
 H         -74.810028     -194.167068      -65.945427
 H         -75.443939     -193.675354      -67.535080
 H         -74.251053     -191.396042      -67.416809
 H         -75.095467     -191.757431      -65.783714
