20
 generated by VMD
 C          -7.046716      -23.106335        2.565771
 N          -6.063619      -22.674347        2.803226
 H          -6.304785      -21.071606       -0.142003
 H          -7.848698      -21.517864       -0.598093
 C          -6.928414      -21.089029       -1.046271
 C          -6.249401      -22.019062       -2.021473
 C          -7.289899      -19.794369       -1.665717
 C          -7.050841      -22.103575       -3.338447
 C          -8.064370      -19.850300       -2.933115
 C          -7.408952      -20.744995       -3.921650
 H          -6.133983      -23.038265       -1.594898
 H          -5.318044      -21.538393       -2.320707
 H          -7.785977      -19.124794       -0.949061
 H          -6.335666      -19.225668       -1.887188
 H          -7.993958      -22.660070       -3.124092
 H          -6.493120      -22.722847       -4.054443
 H          -8.157853      -18.809698       -3.296051
 H          -9.106475      -20.128038       -2.767176
 H          -8.104862      -20.909416       -4.762393
 H          -6.473045      -20.258894       -4.311067
