20
 generated by VMD
 C         -76.004868     -202.670456      -66.373932
 N         -76.832062     -203.035583      -65.686539
 H         -75.720268     -200.182312      -69.074615
 H         -75.416626     -202.339279      -67.260880
 C         -74.785843     -199.648666      -69.005043
 C         -74.850914     -198.273315      -68.428680
 C         -73.808914     -200.031982      -70.025406
 C         -73.426529     -197.649292      -68.567879
 C         -73.175217     -199.014130      -70.788879
 C         -72.756805     -197.846436      -69.894508
 H         -75.120552     -198.362183      -67.381607
 H         -75.721100     -197.693573      -69.019272
 H         -73.184174     -200.781830      -69.495918
 H         -74.311256     -200.729172      -70.806053
 H         -72.874405     -198.238586      -67.846581
 H         -73.401291     -196.662704      -68.195435
 H         -73.894150     -198.444443      -71.452225
 H         -72.330978     -199.454590      -71.393700
 H         -71.743279     -197.966431      -69.706757
 H         -72.865356     -196.802017      -70.463303
