20
 generated by VMD
 C         -47.875748     -124.811050      -38.369339
 N         -47.098190     -125.617798      -38.742294
 H         -45.067516     -122.736130      -37.693130
 H         -48.422474     -124.044800      -37.887371
 C         -45.121555     -122.941437      -38.766804
 C         -43.939808     -123.613297      -39.432419
 C         -45.770836     -121.777534      -39.569187
 C         -44.208641     -124.013756      -40.850132
 C         -46.012535     -122.204041      -40.951691
 C         -44.942982     -123.070328      -41.763077
 H         -43.564426     -124.520836      -38.896168
 H         -43.115788     -122.787956      -39.322186
 H         -46.703724     -121.481911      -39.034718
 H         -45.072308     -120.934349      -39.493614
 H         -44.960049     -124.880470      -40.823566
 H         -43.389706     -124.650520      -41.397186
 H         -46.286648     -121.300514      -41.514194
 H         -47.044231     -122.661270      -41.018837
 H         -45.379082     -123.572044      -42.699776
 H         -44.174603     -122.340492      -42.114079
