20
 generated by VMD
 C         -19.859879      -60.116608      -17.731310
 N         -19.573017      -59.005795      -18.061012
 H         -22.700731      -59.814415      -15.807684
 H         -19.897783      -61.140446      -17.523790
 C         -22.982241      -60.839901      -15.996960
 C         -23.185303      -61.510941      -17.306030
 C         -23.309143      -61.569000      -14.679057
 C         -22.826303      -63.031364      -17.263645
 C         -22.635092      -62.980824      -14.792295
 C         -23.256207      -63.716343      -15.928215
 H         -22.857807      -60.953186      -18.146278
 H         -24.239159      -61.394894      -17.562962
 H         -22.947599      -61.163631      -13.780011
 H         -24.407763      -61.522514      -14.549067
 H         -21.701361      -63.142334      -17.309153
 H         -23.263290      -63.610931      -18.106394
 H         -22.873482      -63.474380      -13.885294
 H         -21.572012      -62.865688      -14.907334
 H         -23.066517      -64.770798      -16.051628
 H         -24.323883      -63.728195      -15.859740
