20
 generated by VMD
 C         -67.451538     -191.945160      -67.407104
 N         -67.439049     -192.747726      -66.589302
 H         -70.058617     -189.790710      -65.544365
 H         -67.228500     -191.194702      -68.086960
 C         -71.061256     -189.898376      -65.245705
 C         -71.757904     -190.931839      -66.036179
 C         -71.505730     -189.310165      -64.000259
 C         -73.092094     -191.503998      -65.487015
 C         -72.952934     -189.650558      -63.678818
 C         -73.211517     -191.143173      -63.931103
 H         -70.976997     -191.762955      -66.211418
 H         -71.880493     -190.561432      -67.048836
 H         -70.800095     -189.471878      -63.077980
 H         -71.423943     -188.190140      -64.088547
 H         -73.110741     -192.606094      -65.572136
 H         -73.931824     -190.963470      -65.868095
 H         -73.705734     -189.190109      -64.326561
 H         -73.107109     -189.516876      -62.615505
 H         -72.654221     -191.771606      -63.234821
 H         -74.173889     -191.648895      -63.612885
