20
 generated by VMD
 C         -24.133165      -69.823624      -16.711617
 N         -24.411009      -70.169838      -15.661224
 H         -23.715776      -67.384735      -18.829020
 H         -23.646362      -69.458328      -17.669235
 C         -24.402903      -67.901466      -19.465294
 C         -23.839447      -68.518028      -20.671892
 C         -25.851078      -67.642242      -19.463007
 C         -24.589962      -69.800201      -21.026175
 C         -26.739908      -68.842499      -19.749672
 C         -26.113277      -69.502106      -21.029686
 H         -22.729572      -68.866173      -20.465227
 H         -23.744616      -67.704018      -21.450296
 H         -26.084917      -67.242882      -18.485546
 H         -26.061865      -66.803650      -19.994503
 H         -24.282269      -70.542618      -20.188229
 H         -24.262928      -70.213440      -22.002352
 H         -27.807316      -68.570091      -19.992254
 H         -26.795645      -69.625854      -18.927950
 H         -26.688993      -70.375839      -21.328634
 H         -26.421083      -68.739983      -21.768095
