20
 generated by VMD
 C         -40.534920     -106.713028      -37.312927
 N         -39.520027     -106.677986      -37.838348
 H         -38.517666     -108.639481      -35.030464
 H         -41.577255     -106.635483      -37.075813
 C         -39.102818     -108.822227      -34.114998
 C         -38.673092     -109.931587      -33.107342
 C         -40.687679     -108.823547      -34.364792
 C         -39.740993     -110.418510      -32.073776
 C         -41.495144     -109.317947      -33.247158
 C         -40.998909     -110.623482      -32.773945
 H         -37.780209     -109.349007      -32.647388
 H         -38.194660     -110.690201      -33.758362
 H         -40.986778     -107.850685      -34.567623
 H         -40.892288     -109.451744      -35.214840
 H         -39.793339     -109.757690      -31.300644
 H         -39.494030     -111.394676      -31.633083
 H         -42.590462     -109.341835      -33.565426
 H         -41.468739     -108.618645      -32.429672
 H         -41.789783     -111.062576      -32.004818
 H         -40.881737     -111.359711      -33.568832
