20
 generated by VMD
 C         -58.198662     -165.617264      -56.288673
 N         -57.244377     -165.332520      -56.956696
 H         -60.964703     -164.480759      -53.637154
 H         -58.990627     -165.899017      -55.601986
 C         -61.390026     -164.876190      -54.559834
 C         -61.732090     -166.305557      -54.698597
 C         -61.848595     -164.016922      -55.634197
 C         -63.276455     -166.418472      -54.871445
 C         -63.379402     -164.040451      -55.853649
 C         -63.835632     -165.530426      -55.967712
 H         -61.385193     -166.943909      -53.908283
 H         -61.417053     -166.614914      -55.724068
 H         -61.609467     -162.906158      -55.571163
 H         -61.421543     -164.314011      -56.571915
 H         -63.609104     -166.234055      -53.881065
 H         -63.513287     -167.479263      -55.121346
 H         -63.592674     -163.791580      -56.959488
 H         -63.969349     -163.554138      -55.035988
 H         -64.971916     -165.586624      -55.899967
 H         -63.678528     -166.052475      -57.023136
