20
 generated by VMD
 C         -49.607254     -131.857468      -46.418861
 N         -50.233036     -132.356598      -47.261791
 H         -47.733593     -133.639114      -44.390678
 H         -48.865124     -131.327042      -45.900921
 C         -48.336845     -134.081573      -43.634579
 C         -49.175789     -135.328552      -43.980885
 C         -49.146324     -133.090714      -42.892281
 C         -49.674873     -135.959518      -42.675182
 C         -49.639679     -133.683029      -41.575626
 C         -50.454430     -134.871338      -41.857960
 H         -48.588894     -136.054504      -44.536682
 H         -50.103031     -135.133453      -44.663731
 H         -48.573441     -132.259659      -42.726871
 H         -49.965069     -132.702515      -43.513184
 H         -48.881248     -136.259720      -42.003902
 H         -50.458019     -136.711014      -42.901024
 H         -50.304176     -132.843246      -41.094673
 H         -48.824165     -133.870392      -40.855938
 H         -50.854637     -135.256226      -40.892113
 H         -51.527416     -134.549393      -42.259159
