20
 generated by VMD
 C         -67.516563     -192.599548      -66.921120
 N         -68.664368     -192.725494      -66.886948
 H         -69.807533     -189.947418      -65.153915
 H         -66.495102     -192.483932      -67.198204
 C         -70.887291     -190.160370      -65.130630
 C         -71.615807     -190.846161      -66.212402
 C         -71.625206     -189.832596      -63.869953
 C         -72.560181     -191.909164      -65.695183
 C         -73.120201     -190.070419      -64.055527
 C         -73.440796     -191.440811      -64.502182
 H         -70.774567     -191.291718      -66.848511
 H         -72.286446     -190.109131      -66.790886
 H         -71.207741     -190.517654      -63.019779
 H         -71.390831     -188.762054      -63.684372
 H         -71.940605     -192.829285      -65.458382
 H         -73.230148     -192.458313      -66.404930
 H         -73.432999     -189.378159      -64.854996
 H         -73.673775     -189.837662      -63.113621
 H         -73.308922     -192.084641      -63.531109
 H         -74.416176     -191.527527      -64.681526
