20
 generated by VMD
 C         -40.938869     -100.828514      -32.838470
 N         -41.734108     -101.262573      -32.077751
 H         -38.371712     -103.316536      -32.217236
 H         -40.348526     -100.301910      -33.507835
 C         -37.403435     -102.886757      -32.067158
 C         -36.247929     -102.680748      -32.970737
 C         -37.177082     -102.839294      -30.470253
 C         -35.194435     -101.698868      -32.362904
 C         -36.335682     -101.623886      -29.983616
 C         -34.982014     -101.741547      -30.817350
 H         -36.598644     -102.369370      -33.980251
 H         -35.745243     -103.673248      -33.032768
 H         -38.216892     -102.747040      -30.016342
 H         -36.698334     -103.708244      -30.024361
 H         -35.558052     -100.747864      -32.772900
 H         -34.268295     -101.949707      -32.904774
 H         -36.266754     -101.656898      -28.903368
 H         -36.905766     -100.759949      -30.308783
 H         -34.232491     -100.940582      -30.454975
 H         -34.484432     -102.649727      -30.469679
