20
 generated by VMD
 C         -60.610821     -153.294388      -52.189610
 N         -60.513355     -152.657959      -51.251053
 H         -57.405167     -153.867157      -50.197472
 H         -60.728252     -154.020142      -52.951965
 C         -56.516979     -153.230835      -50.268036
 C         -55.342060     -153.649994      -49.510292
 C         -56.650608     -151.983231      -51.064560
 C         -53.998058     -153.007996      -49.983856
 C         -55.341885     -151.470901      -51.680908
 C         -54.215828     -151.502060      -50.617851
 H         -55.173515     -154.723907      -49.367176
 H         -55.575233     -153.238220      -48.501465
 H         -57.416309     -152.151276      -51.841038
 H         -56.998440     -151.210022      -50.390400
 H         -53.560379     -153.681702      -50.734608
 H         -53.345032     -152.726273      -49.100948
 H         -55.310982     -150.518646      -52.178154
 H         -55.047592     -152.131607      -52.535660
 H         -53.216984     -151.475128      -51.152550
 H         -54.360744     -150.821259      -49.782623
