20
 generated by VMD
 C         -33.638832      -96.088417      -25.335331
 N         -33.889744      -96.957436      -26.089132
 H         -34.690987      -94.288422      -27.371695
 H         -33.559048      -95.182007      -24.822561
 C         -34.808323      -93.985497      -28.382097
 C         -36.020771      -94.380882      -29.249689
 C         -33.501858      -93.615440      -29.083403
 C         -36.126816      -93.549149      -30.541510
 C         -33.788719      -92.768616      -30.302536
 C         -34.852303      -93.394829      -31.221617
 H         -36.932846      -94.301926      -28.612572
 H         -35.941597      -95.428490      -29.628605
 H         -32.881611      -93.021111      -28.301611
 H         -32.961880      -94.557121      -29.393501
 H         -36.482948      -92.545471      -30.357798
 H         -36.981113      -93.979706      -31.148315
 H         -32.904530      -92.637016      -30.939249
 H         -33.957619      -91.753502      -29.933548
 H         -35.122169      -92.654640      -31.920393
 H         -34.447224      -94.389488      -31.901978
