20
 generated by VMD
 C         -28.239946      -82.381348      -26.749844
 N         -27.394720      -83.124886      -27.020494
 H         -31.245140      -84.116692      -26.579062
 H         -28.994650      -81.614861      -26.317383
 C         -31.615957      -84.799759      -25.717667
 C         -31.059486      -84.646187      -24.378185
 C         -32.115070      -86.121201      -26.221762
 C         -32.133812      -85.160461      -23.351528
 C         -33.107193      -86.680717      -25.153017
 C         -32.507286      -86.675140      -23.758310
 H         -31.036070      -83.601883      -24.110647
 H         -30.005220      -85.085579      -24.451712
 H         -32.729588      -85.940437      -27.130033
 H         -31.342175      -86.830193      -26.539650
 H         -32.954163      -84.533745      -23.473928
 H         -31.877321      -85.108215      -22.279991
 H         -33.453087      -87.771149      -25.261442
 H         -34.001541      -86.042366      -25.194199
 H         -33.024788      -87.116882      -22.970762
 H         -31.458719      -87.030426      -23.782841
