20
 generated by VMD
 C         -74.574028     -201.299088      -66.041313
 N         -73.490662     -200.926346      -66.119881
 H         -76.314163     -198.870239      -68.655945
 H         -75.576958     -201.497589      -65.842285
 C         -75.377426     -198.294678      -68.863884
 C         -74.945053     -197.065033      -68.071251
 C         -74.521667     -199.029327      -69.810188
 C         -73.484329     -196.790726      -68.044258
 C         -73.213287     -198.316071      -70.074860
 C         -72.687576     -197.817719      -68.678993
 H         -75.161003     -197.304337      -67.029808
 H         -75.707184     -196.207489      -68.289528
 H         -74.413704     -200.080566      -69.461151
 H         -75.068497     -199.174271      -70.817596
 H         -73.175972     -196.565674      -67.042580
 H         -73.497177     -195.805344      -68.492195
 H         -73.444168     -197.498917      -70.827003
 H         -72.388908     -198.995270      -70.441406
 H         -72.566444     -198.654800      -67.969841
 H         -71.642342     -197.294174      -68.818634
