20
 generated by VMD
 C         -50.896107     -129.344452      -45.132488
 N         -50.947399     -130.027939      -44.229160
 H         -49.001152     -128.513275      -41.830013
 H         -50.812916     -128.909225      -46.123993
 C         -48.219723     -128.750061      -41.241989
 C         -47.852535     -130.186951      -40.933338
 C         -47.184036     -127.745934      -40.951431
 C         -46.445751     -130.473328      -41.461079
 C         -45.731804     -128.156967      -41.317539
 C         -45.407356     -129.581299      -40.923710
 H         -48.551140     -130.985413      -41.464588
 H         -47.878952     -130.384232      -39.892120
 H         -47.525478     -126.898926      -41.431992
 H         -47.187252     -127.454094      -39.822021
 H         -46.296959     -130.405273      -42.584133
 H         -46.305801     -131.561142      -41.400455
 H         -45.120415     -127.392563      -40.776073
 H         -45.482002     -128.065826      -42.386292
 H         -44.410088     -129.796432      -41.312050
 H         -45.373123     -129.557693      -39.803864
