20
 generated by VMD
 C         -28.934660      -81.429916      -27.627394
 N         -29.736671      -80.636322      -27.504730
 H         -29.170401      -82.172569      -23.924984
 H         -28.145964      -82.163254      -28.027117
 C         -29.623201      -83.151581      -23.871275
 C         -29.820292      -83.876289      -22.557053
 C         -30.149069      -83.949135      -25.020514
 C         -31.255260      -83.956573      -22.356060
 C         -31.616182      -84.282509      -24.835360
 C         -32.043850      -84.750984      -23.474588
 H         -29.330231      -83.459946      -21.688011
 H         -29.492506      -85.007576      -22.528955
 H         -29.888325      -83.575325      -26.046591
 H         -29.567398      -84.916954      -25.011047
 H         -31.765556      -82.958054      -22.274416
 H         -31.494923      -84.429352      -21.481213
 H         -31.709663      -84.977325      -25.661776
 H         -32.126919      -83.323868      -25.211613
 H         -33.147781      -84.781921      -23.369434
 H         -31.725620      -85.823128      -23.355639
