20
 generated by VMD
 C         -67.419090     -189.689621      -66.800896
 N         -66.753456     -189.066360      -67.496849
 H         -68.832497     -189.267792      -64.033852
 H         -68.114075     -190.228607      -66.238518
 C         -69.931885     -189.123932      -64.094223
 C         -70.988823     -190.202606      -63.884808
 C         -70.386169     -187.851776      -63.366955
 C         -72.475723     -189.841583      -64.109589
 C         -71.887581     -187.477753      -63.620781
 C         -72.782997     -188.643494      -63.348785
 H         -70.926697     -190.500076      -62.821827
 H         -70.780426     -191.038345      -64.569809
 H         -70.207970     -187.931473      -62.257694
 H         -69.770813     -186.889740      -63.469746
 H         -73.139832     -190.686874      -63.745892
 H         -72.589706     -189.644623      -65.152084
 H         -72.142670     -187.173538      -64.608643
 H         -72.064346     -186.550140      -63.045769
 H         -72.898254     -188.711075      -62.269447
 H         -73.784760     -188.353455      -63.882881
