20
 generated by VMD
 C         -79.549438     -206.357285      -75.061188
 N         -79.700539     -206.383377      -73.927620
 H         -78.545609     -206.720047      -71.252930
 H         -79.345642     -206.406677      -76.078934
 C         -77.661537     -206.727097      -70.664093
 C         -76.549820     -205.826752      -71.263290
 C         -77.273460     -207.948898      -69.926521
 C         -75.273743     -205.758453      -70.414047
 C         -76.030533     -207.850754      -69.111137
 C         -74.911423     -207.231888      -69.987762
 H         -76.887985     -204.729874      -71.171562
 H         -76.307137     -205.974686      -72.367661
 H         -78.107094     -208.072800      -69.272850
 H         -77.303665     -208.855301      -70.574814
 H         -75.631744     -205.203735      -69.528893
 H         -74.360497     -205.276108      -70.905136
 H         -75.673943     -208.857666      -68.743469
 H         -76.160576     -207.159409      -68.285553
 H         -74.095741     -207.069366      -69.262360
 H         -74.629784     -207.742386      -70.936974
