20
 generated by VMD
 C          -1.007157      -10.302254        1.143154
 N          -1.794411       -9.728930        0.573386
 H          -3.416432      -12.170953        1.071804
 H          -4.328643      -12.153134        2.579648
 C          -3.987785      -12.805765        1.794205
 C          -3.149134      -14.001312        2.338608
 C          -5.181773      -13.295384        1.072126
 C          -4.048634      -14.806280        3.308298
 C          -6.052684      -14.146439        1.986731
 C          -5.345024      -15.271147        2.659703
 H          -2.257786      -13.646251        2.728928
 H          -2.837829      -14.587157        1.495077
 H          -5.821004      -12.390401        0.839589
 H          -4.952168      -13.771873        0.097744
 H          -4.368157      -14.165908        4.133928
 H          -3.484686      -15.660765        3.666729
 H          -6.926389      -14.507843        1.440933
 H          -6.434104      -13.419680        2.748389
 H          -6.021979      -15.775830        3.380828
 H          -5.056280      -16.011724        1.848458
