20
 generated by VMD
 C         -39.903885      -99.442421      -28.605463
 N         -39.101612     -100.028099      -28.048466
 H         -37.388523      -98.797783      -30.678961
 H         -40.460995      -98.735626      -29.245913
 C         -36.319756      -98.477402      -30.698217
 C         -35.880619      -98.608551      -32.072632
 C         -35.539642      -97.992050      -29.491198
 C         -34.533047      -97.882507      -32.512299
 C         -34.310482      -97.174507      -29.946537
 C         -33.604156      -97.657089      -31.230255
 H         -36.610146      -98.120621      -32.777859
 H         -35.823605      -99.618309      -32.349567
 H         -36.201027      -97.291534      -28.909887
 H         -35.264618      -98.806892      -28.806780
 H         -34.737831      -96.905655      -32.901611
 H         -33.908070      -98.501144      -33.234116
 H         -33.655525      -96.979012      -29.037254
 H         -34.701508      -96.179260      -30.252176
 H         -32.935287      -96.870811      -31.335218
 H         -33.094364      -98.653664      -30.988478
