20
 generated by VMD
 C         -11.717184      -38.048462       -7.838324
 N         -11.280416      -37.592346       -6.948399
 H         -12.626089      -41.587032       -8.802739
 H         -13.416774      -40.499409       -7.710514
 C         -13.561080      -41.189026       -8.534859
 C         -14.492685      -42.356762       -8.136027
 C         -14.200871      -40.521259       -9.738320
 C         -15.909888      -41.962730       -7.846025
 C         -15.533534      -39.977253       -9.388181
 C         -16.481459      -41.082111       -8.961400
 H         -14.061396      -42.780388       -7.264476
 H         -14.459617      -43.077091       -8.951477
 H         -13.598652      -39.683693      -10.017857
 H         -14.259587      -41.214962      -10.628536
 H         -15.975470      -41.403404       -6.884645
 H         -16.502369      -42.855057       -7.824603
 H         -16.029287      -39.447960      -10.271697
 H         -15.407144      -39.268669       -8.618285
 H         -17.424938      -40.664440       -8.609425
 H         -16.689569      -41.635395       -9.888157
