20
 generated by VMD
 C         -40.828724     -104.004166      -36.988434
 N         -41.005199     -104.874794      -36.267456
 H         -39.508850     -105.447060      -34.009754
 H         -40.795673     -102.992798      -37.436977
 C         -39.031796     -106.283310      -33.404343
 C         -37.815815     -106.070259      -32.634163
 C         -39.730778     -107.684731      -33.437984
 C         -37.642250     -106.763199      -31.334917
 C         -39.545128     -108.324699      -32.016705
 C         -38.120781     -108.181793      -31.527287
 H         -37.695374     -104.955009      -32.405685
 H         -37.087708     -106.335678      -33.390373
 H         -40.842304     -107.557144      -33.571857
 H         -39.250648     -108.068207      -34.275944
 H         -38.128910     -106.418259      -30.452517
 H         -36.600098     -106.851303      -31.020348
 H         -39.893559     -109.388901      -32.096428
 H         -40.134575     -107.671753      -31.381014
 H         -38.094704     -108.558701      -30.517815
 H         -37.473362     -108.815102      -32.168278
