20
 generated by VMD
 C         -11.197143      -32.663727       -8.802233
 N         -11.957837      -32.962200       -9.544792
 H         -11.978690      -33.705608       -6.405248
 H         -12.604483      -34.232140       -4.837129
 C         -12.303199      -34.591351       -5.854297
 C         -11.129682      -35.568111       -5.595169
 C         -13.539429      -35.312756       -6.478107
 C         -11.397279      -36.895813       -4.963575
 C         -13.880823      -36.559841       -5.627424
 C         -12.625582      -37.484203       -5.620382
 H         -10.466623      -34.997852       -4.926323
 H         -10.687802      -35.794155       -6.595905
 H         -14.361151      -34.577953       -6.544729
 H         -13.252061      -35.516445       -7.492429
 H         -11.694108      -36.766304       -3.906245
 H         -10.581694      -37.577824       -5.152968
 H         -14.674679      -37.055130       -6.119285
 H         -14.165392      -36.328785       -4.564457
 H         -12.858959      -38.402340       -5.012189
 H         -12.325258      -37.860146       -6.637863
