20
 generated by VMD
 C         -53.062027     -146.816711      -44.777767
 N         -51.900528     -146.952438      -44.673103
 H         -54.554497     -146.482300      -47.817226
 H         -54.083691     -146.557861      -44.743744
 C         -54.212189     -145.526642      -48.112881
 C         -53.039539     -145.404129      -49.051334
 C         -54.980198     -144.297226      -47.712791
 C         -53.390575     -144.621399      -50.305996
 C         -55.260048     -143.587982      -48.944942
 C         -54.103676     -143.318680      -49.874245
 H         -52.736912     -146.323395      -49.449028
 H         -52.100586     -145.062561      -48.549110
 H         -55.888187     -144.564835      -47.187157
 H         -54.409332     -143.642456      -47.180222
 H         -54.161728     -145.092422      -51.062645
 H         -52.448605     -144.436264      -51.008904
 H         -55.775230     -142.609253      -48.745163
 H         -55.978134     -144.197922      -49.490288
 H         -54.539974     -142.826614      -50.736839
 H         -53.373825     -142.724106      -49.405682
