20
 generated by VMD
 C         -41.488243     -102.553886      -35.854843
 N         -41.435257     -103.705269      -35.670731
 H         -39.092712     -104.665756      -33.917736
 H         -41.885220     -101.598969      -36.005882
 C         -38.532135     -105.272942      -33.095974
 C         -37.154667     -104.793724      -32.819523
 C         -39.104809     -106.350548      -32.378490
 C         -36.698738     -104.993111      -31.434412
 C         -38.291878     -106.705589      -31.001354
 C         -36.789982     -106.474831      -31.031618
 H         -37.149860     -103.701721      -32.944366
 H         -36.398537     -105.225487      -33.550285
 H         -40.180336     -106.265320      -32.121559
 H         -39.018021     -107.194046      -32.990650
 H         -37.041313     -104.317368      -30.698999
 H         -35.671471     -104.659943      -31.501249
 H         -38.666508     -107.661713      -30.735266
 H         -38.606129     -106.019569      -30.174910
 H         -36.247807     -106.749710      -30.178980
 H         -36.281776     -106.978691      -31.913578
