20
 generated by VMD
 C         -27.152843      -72.675575      -17.803131
 N         -27.900993      -73.365356      -17.181633
 H         -24.520626      -70.074013      -18.804203
 H         -26.367937      -72.308228      -18.329285
 C         -24.899281      -70.486519      -19.769382
 C         -24.381166      -71.681961      -20.408852
 C         -25.603189      -69.531380      -20.609196
 C         -25.403570      -72.385040      -21.317345
 C         -26.448984      -70.180634      -21.690649
 C         -25.800455      -71.398727      -22.330215
 H         -24.027065      -72.438240      -19.833580
 H         -23.515457      -71.390015      -21.050352
 H         -26.201851      -68.925827      -19.986319
 H         -24.875008      -68.867935      -21.136274
 H         -26.228842      -72.728271      -20.668528
 H         -25.006956      -73.233185      -21.846691
 H         -26.739304      -69.346237      -22.401552
 H         -27.323212      -70.619026      -21.118233
 H         -26.553555      -71.902626      -23.015266
 H         -25.096949      -71.092026      -23.055658
