20
 generated by VMD
 C         -40.411304     -106.961411      -37.724979
 N         -39.322781     -106.634964      -37.849915
 H         -38.654400     -108.195549      -34.454346
 H         -41.348621     -107.282837      -37.324959
 C         -39.365364     -108.780510      -33.825447
 C         -38.806362     -110.142403      -33.435863
 C         -40.737965     -108.852623      -34.289257
 C         -39.678165     -110.685616      -32.200306
 C         -41.712563     -109.519722      -33.306110
 C         -41.162830     -110.834579      -32.615692
 H         -37.730850     -109.950790      -32.993526
 H         -38.747776     -110.779320      -34.370350
 H         -41.063393     -107.833061      -34.462620
 H         -40.696381     -109.386711      -35.224209
 H         -39.715542     -110.045219      -31.282448
 H         -39.236591     -111.658241      -31.900450
 H         -42.686089     -109.685333      -33.689579
 H         -41.786770     -108.764267      -32.611324
 H         -41.860989     -111.060478      -31.814308
 H         -41.191635     -111.627968      -33.353493
