20
 generated by VMD
 C         -28.289431      -88.028877      -26.386007
 N         -28.333405      -86.910294      -26.089231
 H         -31.242823      -89.464424      -26.265415
 H         -28.072807      -88.967552      -26.688478
 C         -32.178318      -88.920326      -26.290102
 C         -33.121563      -88.786743      -25.115715
 C         -32.773132      -88.766266      -27.716732
 C         -34.290951      -87.848534      -25.393007
 C         -33.711468      -87.702095      -27.880621
 C         -34.872551      -87.873871      -26.824106
 H         -32.664181      -88.412811      -24.103996
 H         -33.505310      -89.856941      -24.722395
 H         -31.836960      -88.744644      -28.288637
 H         -33.208359      -89.702896      -28.016932
 H         -34.094509      -86.732079      -25.251781
 H         -35.149395      -88.230965      -24.671934
 H         -34.227303      -87.779320      -28.849062
 H         -33.329212      -86.701126      -27.705065
 H         -35.662849      -87.174561      -26.920469
 H         -35.371330      -88.784943      -27.062824
