20
 generated by VMD
 C         -78.437424     -209.762589      -77.316154
 N         -79.035652     -208.963593      -76.789528
 H         -78.178795     -210.375839      -73.557060
 H         -77.896133     -210.573318      -77.747650
 C         -78.533554     -211.123505      -72.853394
 C         -77.539871     -211.632233      -71.860176
 C         -79.698959     -212.006332      -72.913063
 C         -78.173264     -211.925293      -70.590309
 C         -80.199966     -212.563004      -71.559326
 C         -79.141045     -213.081100      -70.646294
 H         -76.756210     -210.900070      -71.758553
 H         -77.194557     -212.597336      -72.143684
 H         -80.604980     -211.655716      -73.462975
 H         -79.432251     -212.946243      -73.507309
 H         -78.593941     -210.969421      -70.349373
 H         -77.455818     -212.192581      -69.825333
 H         -80.975624     -213.426910      -71.744110
 H         -80.658249     -211.790848      -71.052376
 H         -79.621315     -213.310028      -69.676643
 H         -78.602577     -213.958511      -70.991257
