20
 generated by VMD
 C         -40.332893     -104.558357      -36.104294
 N         -39.498535     -104.823502      -36.852982
 H         -40.771980     -107.504517      -34.866844
 H         -41.209454     -104.288147      -35.582542
 C         -40.055302     -107.803825      -34.098820
 C         -38.863018     -107.025345      -33.599064
 C         -39.877411     -109.215927      -33.596550
 C         -38.584854     -107.017540      -32.121906
 C         -39.955124     -109.176735      -32.020039
 C         -38.709862     -108.400177      -31.452391
 H         -39.140247     -105.982964      -33.885025
 H         -37.926941     -107.092155      -34.101837
 H         -40.663326     -109.927429      -33.874954
 H         -38.966541     -109.717438      -33.825054
 H         -39.273426     -106.256050      -31.669983
 H         -37.526627     -106.714264      -31.931845
 H         -39.980206     -110.190941      -31.817471
 H         -40.894627     -108.683266      -31.694683
 H         -38.845089     -108.460533      -30.290661
 H         -37.902790     -108.998215      -31.679644
