20
 generated by VMD
 C         -19.788582      -63.982101      -16.423809
 N         -20.012703      -63.128620      -17.170242
 H         -23.599773      -63.209209      -17.267954
 H         -19.535395      -64.991585      -15.940941
 C         -24.094473      -64.184715      -17.588886
 C         -24.437990      -64.173592      -18.999388
 C         -24.388226      -65.235817      -16.603052
 C         -24.663446      -65.727280      -19.408747
 C         -24.759476      -66.599739      -17.105207
 C         -25.563787      -66.536301      -18.454868
 H         -23.623266      -63.904949      -19.693460
 H         -25.370102      -63.608582      -19.082767
 H         -23.463322      -65.405968      -15.912398
 H         -25.025242      -64.868912      -15.802697
 H         -23.658474      -66.248924      -19.420015
 H         -25.176601      -65.780251      -20.397091
 H         -25.308334      -67.149910      -16.308372
 H         -23.875154      -67.208130      -17.335640
 H         -26.016277      -67.504768      -18.800873
 H         -26.416931      -65.851395      -18.277327
