20
 generated by VMD
 C         -23.351730      -54.009026      -14.840487
 N         -24.273762      -53.413189      -15.234430
 H         -20.048346      -54.733971      -15.734906
 H         -22.472591      -54.364788      -14.687166
 C         -19.441914      -55.136681      -14.783873
 C         -19.071142      -54.342049      -13.572493
 C         -18.965443      -56.573620      -14.866525
 C         -18.382418      -55.103611      -12.458942
 C         -17.959923      -57.188709      -13.883856
 C         -17.361130      -56.135441      -12.891875
 H         -19.982767      -53.901051      -13.160991
 H         -18.408356      -53.600616      -13.984066
 H         -19.966629      -57.133999      -14.708443
 H         -18.658482      -56.713909      -15.896541
 H         -19.207836      -55.572731      -11.883827
 H         -17.809515      -54.389034      -11.870102
 H         -17.068071      -57.572933      -14.432254
 H         -18.354874      -58.038506      -13.367343
 H         -16.970634      -56.643097      -12.000049
 H         -16.544386      -55.610779      -13.387824
