20
 generated by VMD
 C         -41.128624     -101.496643      -32.641949
 N         -41.944862     -101.496353      -33.431137
 H         -38.746944     -102.912300      -32.439297
 H         -40.328934     -101.068138      -31.960390
 C         -37.723896     -102.854996      -32.032703
 C         -36.617451     -102.710106      -33.012341
 C         -37.424793     -103.115692      -30.555683
 C         -35.219135     -102.267700      -32.362213
 C         -36.265461     -102.337723      -30.014826
 C         -34.992092     -102.701675      -30.851568
 H         -37.092426     -102.071800      -33.747646
 H         -36.491459     -103.696426      -33.412537
 H         -38.278469     -102.638268      -30.047657
 H         -37.439735     -104.208374      -30.429945
 H         -35.266563     -101.127327      -32.368858
 H         -34.361118     -102.575752      -32.976639
 H         -36.216671     -102.600113      -28.983936
 H         -36.178036     -101.223915      -30.042387
 H         -34.107662     -102.199562      -30.629063
 H         -34.821625     -103.791718      -30.775103
