20
 generated by VMD
 C         -29.398466      -90.072838      -25.174692
 N         -29.093218      -91.144348      -25.419312
 H         -32.285221      -91.159546      -26.917416
 H         -29.804605      -89.175522      -24.927240
 C         -33.097176      -90.789162      -27.530273
 C         -34.395386      -91.503418      -27.519260
 C         -32.947384      -89.707863      -28.456619
 C         -35.540276      -90.527359      -27.319811
 C         -33.964714      -88.667847      -28.383690
 C         -35.430626      -89.148827      -28.030458
 H         -34.429695      -92.261757      -26.702747
 H         -34.459717      -92.157059      -28.478184
 H         -31.892483      -89.383675      -28.320543
 H         -32.869884      -90.064629      -29.474417
 H         -35.598885      -90.416870      -26.185099
 H         -36.559799      -90.910721      -27.751341
 H         -33.891956      -87.971802      -29.278746
 H         -33.703674      -88.067711      -27.497955
 H         -36.067284      -88.395180      -27.655994
 H         -35.811947      -89.199875      -29.002134
