20
 generated by VMD
 C         -11.957042      -26.107704       -0.077522
 N         -12.885613      -26.240702       -0.660076
 H         -10.033444      -26.476810       -3.348337
 H          -9.455781      -25.677094       -4.866979
 C          -9.092405      -26.151039       -3.929043
 C          -8.076386      -27.290569       -4.105173
 C          -8.483743      -25.138903       -2.859298
 C          -6.764479      -26.762661       -4.702819
 C          -7.114212      -24.571838       -3.490200
 C          -6.145605      -25.760986       -3.793691
 H          -8.475248      -28.040800       -4.911168
 H          -7.849364      -27.817657       -3.168511
 H          -9.161639      -24.292137       -2.842529
 H          -8.313354      -25.592516       -1.839119
 H          -6.906800      -26.377197       -5.736164
 H          -6.107462      -27.669363       -4.734846
 H          -6.672167      -23.873552       -2.761240
 H          -7.252019      -23.930323       -4.401335
 H          -5.257825      -25.346148       -4.268337
 H          -5.761226      -26.134853       -2.853015
