20
 generated by VMD
 C         -58.528210     -161.550247      -56.244465
 N         -58.229019     -160.467056      -56.247322
 H         -59.669605     -164.804993      -55.631710
 H         -58.768887     -162.609222      -56.316845
 C         -60.322910     -164.400070      -54.773415
 C         -59.713898     -163.548080      -53.687065
 C         -61.789623     -164.453354      -54.833668
 C         -60.503399     -162.213547      -53.251293
 C         -62.294037     -162.949753      -54.852295
 C         -62.049423     -162.278259      -53.448029
 H         -58.626274     -163.318314      -53.672981
 H         -59.666447     -164.223145      -52.865761
 H         -62.167847     -164.963776      -55.821651
 H         -62.239452     -165.104904      -54.125217
 H         -60.046833     -161.429810      -53.862774
 H         -60.222439     -161.854721      -52.146027
 H         -63.396027     -162.978012      -54.925262
 H         -61.641144     -162.436600      -55.569950
 H         -62.491055     -161.248810      -53.360920
 H         -62.501804     -162.903519      -52.620152
