20
 generated by VMD
 C         -58.714333     -151.994797      -49.024799
 N         -59.307018     -152.186096      -49.965591
 H         -56.333519     -150.369553      -48.345425
 H         -58.141991     -151.974991      -48.131863
 C         -55.489449     -150.069885      -49.033596
 C         -54.587593     -151.128067      -49.622459
 C         -55.259415     -148.635559      -49.147377
 C         -54.200607     -150.686432      -51.010754
 C         -54.729893     -148.161835      -50.531952
 C         -53.719097     -149.152863      -51.037136
 H         -55.109844     -152.070679      -49.632526
 H         -53.861443     -151.398224      -48.766685
 H         -56.148125     -148.018082      -49.086124
 H         -54.514122     -148.349518      -48.471828
 H         -55.047638     -150.961487      -51.660740
 H         -53.356754     -151.244781      -51.381779
 H         -54.236725     -147.234558      -50.439007
 H         -55.651543     -148.372086      -51.260777
 H         -53.616890     -148.914658      -52.138882
 H         -52.823494     -149.091370      -50.488903
