20
 generated by VMD
 C         -16.313967      -47.651478       -7.174206
 N         -16.078125      -46.559597       -7.092597
 H         -16.771042      -48.305023      -10.185052
 H         -15.441792      -47.947392      -11.272069
 C         -16.458897      -47.600445      -11.006042
 C         -16.359488      -46.175777      -10.498392
 C         -17.401230      -47.737133      -12.231188
 C         -15.943875      -45.214779      -11.581936
 C         -16.996853      -46.804619      -13.373569
 C         -16.851871      -45.359909      -12.849612
 H         -15.544873      -46.144760       -9.771768
 H         -17.298647      -45.880619      -10.084163
 H         -17.397058      -48.773655      -12.554777
 H         -18.364168      -47.449165      -11.890696
 H         -14.902993      -45.375217      -11.835177
 H         -16.012270      -44.194378      -11.216589
 H         -17.517117      -46.782410      -14.363166
 H         -15.974405      -47.227592      -13.632782
 H         -16.428978      -44.704174      -13.684555
 H         -17.835976      -44.885174      -12.668597
