20
 generated by VMD
 C         -38.385090     -113.818901      -35.478107
 N         -38.214886     -114.953949      -35.496063
 H         -41.383038     -115.180443      -36.229191
 H         -38.347088     -112.732216      -35.711483
 C         -42.347523     -114.767204      -36.519253
 C         -42.677204     -114.659592      -38.019417
 C         -43.555649     -114.531227      -35.487137
 C         -43.804981     -115.647110      -38.304939
 C         -44.671070     -115.461609      -35.869141
 C         -44.959625     -115.346725      -37.347012
 H         -41.847565     -114.991096      -38.658169
 H         -42.828148     -113.676521      -38.464123
 H         -43.187420     -114.916603      -34.507313
 H         -43.812405     -113.455269      -35.584229
 H         -43.522076     -116.766884      -38.077530
 H         -44.124004     -115.663368      -39.353249
 H         -45.409912     -115.049301      -35.208286
 H         -44.402508     -116.494141      -35.681179
 H         -45.828499     -115.968544      -37.790142
 H         -45.368847     -114.290192      -37.539803
