20
 generated by VMD
 C         -27.973623      -81.214798      -27.593613
 N         -29.152054      -81.227646      -27.477352
 H         -29.524740      -83.009438      -25.054543
 H         -26.975828      -81.223801      -27.429731
 C         -30.163305      -83.787506      -24.598738
 C         -30.216978      -83.965508      -23.063293
 C         -30.924000      -84.828339      -25.384363
 C         -31.653511      -84.388756      -22.497978
 C         -32.337345      -85.133743      -24.836872
 C         -32.170223      -85.451904      -23.342697
 H         -30.039257      -83.018433      -22.683125
 H         -29.533567      -84.729889      -22.683937
 H         -31.094282      -84.397537      -26.411018
 H         -30.202963      -85.621788      -25.291609
 H         -32.345009      -83.531021      -22.431705
 H         -31.585688      -84.650101      -21.450920
 H         -32.849297      -85.824860      -25.426632
 H         -32.979168      -84.280861      -25.000031
 H         -33.195946      -85.664787      -23.063486
 H         -31.659847      -86.354675      -23.331350
