20
 generated by VMD
 C         -60.326897     -170.544022      -55.160320
 N         -59.192318     -170.893585      -55.327190
 H         -63.154839     -170.544434      -56.609341
 H         -61.378525     -170.282593      -55.051353
 C         -63.387772     -169.518051      -56.977314
 C         -62.375332     -168.838135      -57.668549
 C         -64.563240     -168.803085      -56.375935
 C         -62.995811     -167.961227      -58.772266
 C         -65.212341     -167.988342      -57.436306
 C         -64.071770     -167.111359      -58.104797
 H         -61.592480     -169.480621      -58.189240
 H         -61.825298     -168.167816      -56.946533
 H         -65.246666     -169.476807      -55.962482
 H         -64.288231     -168.141769      -55.568233
 H         -63.420902     -168.613190      -59.601276
 H         -62.049915     -167.512283      -59.145412
 H         -65.974579     -167.345627      -57.022537
 H         -65.730301     -168.602249      -58.074741
 H         -64.448189     -166.390350      -58.873302
 H         -63.677029     -166.553482      -57.223240
