20
 generated by VMD
 C         -41.911613     -101.884773      -33.685307
 N         -40.800922     -101.876282      -33.957550
 H         -39.250179     -103.981300      -32.521584
 H         -42.921490     -101.949356      -33.367252
 C         -38.154793     -103.738396      -32.249107
 C         -36.970943     -103.475212      -33.165112
 C         -37.890308     -104.391098      -30.846830
 C         -35.804607     -102.973694      -32.403851
 C         -36.756237     -103.707260      -30.155573
 C         -35.565586     -103.692642      -31.084414
 H         -37.166904     -102.743660      -33.967323
 H         -36.748821     -104.476578      -33.672588
 H         -38.838676     -104.211967      -30.406246
 H         -37.832561     -105.555344      -30.906494
 H         -35.804207     -101.930885      -32.117950
 H         -34.910942     -103.152222      -33.064129
 H         -36.571262     -104.243774      -29.149860
 H         -36.915981     -102.705544      -29.909487
 H         -34.687103     -103.220604      -30.498610
 H         -35.256725     -104.726807      -31.197172
