20
 generated by VMD
 C         -41.054020     -119.326660      -34.788891
 N         -40.093807     -119.097931      -35.395859
 H         -43.596951     -117.164970      -36.240818
 H         -41.917427     -119.460762      -34.067509
 C         -43.972267     -117.441681      -37.280815
 C         -43.039310     -117.752861      -38.388000
 C         -45.247166     -116.849243      -37.576305
 C         -43.696640     -118.445244      -39.595921
 C         -45.916512     -117.496300      -38.818691
 C         -45.053726     -117.736366      -39.986588
 H         -42.300446     -118.489555      -38.001148
 H         -42.409382     -116.883980      -38.686855
 H         -45.835808     -116.969292      -36.700211
 H         -45.149303     -115.733177      -37.622635
 H         -43.817177     -119.544067      -39.401814
 H         -43.138046     -118.403709      -40.505318
 H         -46.767761     -116.874641      -39.094299
 H         -46.558739     -118.268242      -38.550171
 H         -45.530159     -118.233040      -40.818310
 H         -44.843151     -116.706612      -40.478569
