20
 generated by VMD
 C         -11.720688      -33.657028       -8.855494
 N         -11.082923      -34.532532       -8.539243
 H         -11.557503      -36.966579       -8.164514
 H         -11.947327      -36.291122       -6.538536
 C         -12.257003      -37.040798       -7.296943
 C         -11.963287      -38.377678       -6.557970
 C         -13.663054      -36.965725       -7.833446
 C         -13.084392      -38.774666       -5.529781
 C         -14.722146      -37.188553       -6.667295
 C         -14.507099      -38.597881       -6.091521
 H         -11.042996      -38.209572       -5.978869
 H         -11.866233      -39.194534       -7.267589
 H         -13.821480      -35.906532       -8.205769
 H         -13.813962      -37.727245       -8.588528
 H         -12.923651      -38.139214       -4.672109
 H         -12.997492      -39.808105       -5.296684
 H         -15.732574      -37.110786       -7.229775
 H         -14.691969      -36.346428       -6.003946
 H         -15.263264      -38.781338       -5.298454
 H         -14.662325      -39.454037       -6.817070
