20
 generated by VMD
 C         -67.744186     -185.813217      -67.202835
 N         -68.772827     -185.994644      -67.755722
 H         -68.472115     -187.963379      -64.627831
 H         -66.897331     -185.690109      -66.598854
 C         -69.210487     -187.847626      -63.781181
 C         -68.927460     -186.618195      -62.996586
 C         -70.714211     -188.294754      -63.816589
 C         -69.488281     -186.892593      -61.544029
 C         -71.339775     -188.333832      -62.467670
 C         -70.974030     -187.135666      -61.574181
 H         -69.494003     -185.798035      -63.481155
 H         -67.873550     -186.474289      -62.876682
 H         -71.184402     -187.476212      -64.325409
 H         -70.765648     -189.324570      -64.246346
 H         -69.208954     -186.161148      -60.762611
 H         -68.920311     -187.762177      -61.187439
 H         -71.158760     -189.307419      -62.025002
 H         -72.392807     -188.147125      -62.544884
 H         -71.669876     -186.335800      -61.995121
 H         -71.238693     -187.343903      -60.549080
