20
 generated by VMD
 C         -12.048973      -25.425079       -0.603703
 N         -12.796333      -25.801842        0.150855
 H          -8.741724      -26.898457       -2.033900
 H          -9.284357      -26.033543       -3.538588
 C          -8.415236      -26.253321       -2.825449
 C          -7.465176      -26.989485       -3.768481
 C          -7.844408      -24.851582       -2.399845
 C          -6.949131      -26.129528       -4.848446
 C          -7.222509      -24.000336       -3.503740
 C          -6.379681      -24.766735       -4.475666
 H          -8.012134      -27.864084       -4.110946
 H          -6.599989      -27.457582       -3.135590
 H          -8.559591      -24.228758       -1.799912
 H          -7.031507      -25.072184       -1.714423
 H          -7.826088      -25.939026       -5.521756
 H          -6.218872      -26.602348       -5.540385
 H          -6.727537      -23.127590       -3.067008
 H          -8.097904      -23.641754       -4.054975
 H          -6.126687      -24.131721       -5.325277
 H          -5.409614      -25.017693       -4.073188
