20
 generated by VMD
 C         -23.838493      -69.514107      -16.890100
 N         -24.181070      -69.910889      -15.853785
 H         -23.918777      -66.990700      -18.795572
 H         -23.376072      -69.027695      -17.856314
 C         -24.471346      -67.637207      -19.400494
 C         -23.882420      -68.416588      -20.523623
 C         -25.926710      -67.406876      -19.183582
 C         -24.541788      -69.698990      -20.796162
 C         -26.610460      -68.744217      -19.648218
 C         -26.051804      -69.392036      -20.928917
 H         -22.799425      -68.507988      -20.277409
 H         -23.916517      -67.815460      -21.329325
 H         -26.194233      -67.038963      -18.185560
 H         -26.442411      -66.638222      -19.863756
 H         -24.250378      -70.423737      -20.024403
 H         -24.095627      -70.022049      -21.706577
 H         -27.678286      -68.623207      -19.895966
 H         -26.591028      -69.574760      -18.902477
 H         -26.537262      -70.337135      -21.155458
 H         -26.235657      -68.739975      -21.799431
