20
 generated by VMD
 C          -1.641882      -14.123911        2.007973
 N          -1.912114      -13.398670        1.196904
 H          -3.761167      -17.078777        1.295471
 H          -4.162436      -17.112978       -0.416987
 C          -4.602606      -17.045763        0.588802
 C          -5.267354      -15.751297        0.877084
 C          -5.535920      -18.183945        0.933494
 C          -6.528753      -15.586076        0.035324
 C          -6.813349      -18.137939        0.087307
 C          -7.520928      -16.779608        0.141268
 H          -4.554029      -14.965314        0.503525
 H          -5.435704      -15.622280        1.952830
 H          -5.023158      -19.153496        0.696834
 H          -5.821623      -18.269377        2.073365
 H          -6.195391      -15.530965       -0.995348
 H          -7.007097      -14.619459        0.287227
 H          -7.505462      -18.915943        0.302289
 H          -6.546560      -18.292984       -0.953447
 H          -8.338236      -16.748920       -0.581218
 H          -7.965007      -16.758469        1.145462
