20
 generated by VMD
 C         -11.492235      -27.086531       -1.085900
 N         -12.365465      -26.450224       -1.364205
 H         -10.450537      -26.229694       -3.994165
 H          -9.326641      -25.713112       -5.262708
 C          -9.368799      -26.087978       -4.202711
 C          -8.753853      -27.468267       -4.136633
 C          -8.692631      -25.055962       -3.300789
 C          -7.258002      -27.405806       -4.298110
 C          -7.116568      -25.120358       -3.264323
 C          -6.557791      -26.571035       -3.276205
 H          -9.296174      -28.193008       -4.825944
 H          -8.977773      -28.014519       -3.255849
 H          -9.025145      -23.986521       -3.400000
 H          -9.057916      -25.319122       -2.300293
 H          -7.028502      -27.073519       -5.360971
 H          -6.801795      -28.428856       -4.267525
 H          -6.731806      -24.566874       -2.412662
 H          -6.839460      -24.513258       -4.130742
 H          -5.480083      -26.543406       -3.508532
 H          -6.633137      -26.990932       -2.292575
