20
 generated by VMD
 C         -59.298374     -151.967392      -49.195179
 N         -58.785561     -152.269714      -50.231899
 H         -56.248741     -150.650879      -48.097492
 H         -59.893761     -151.749924      -48.280205
 C         -55.772915     -150.446625      -49.104843
 C         -54.767757     -151.346832      -49.720966
 C         -55.396141     -149.036713      -49.261822
 C         -54.259762     -150.904480      -51.105244
 C         -54.793587     -148.549637      -50.561752
 C         -53.704155     -149.493378      -50.968140
 H         -55.221634     -152.375290      -49.594589
 H         -53.884312     -151.311615      -49.124142
 H         -56.330551     -148.477722      -49.203285
 H         -54.669136     -148.713379      -48.439739
 H         -54.958744     -150.989197      -51.932415
 H         -53.508675     -151.694824      -51.370934
 H         -54.280243     -147.535751      -50.492325
 H         -55.456593     -148.464005      -51.358471
 H         -53.409458     -149.222672      -51.920166
 H         -52.870438     -149.393173      -50.248623
