20
 generated by VMD
 C         -56.601685     -150.113846      -47.653873
 N         -57.661015     -150.382492      -47.956093
 H         -53.873516     -148.426147      -47.550964
 H         -55.626480     -149.985962      -47.290672
 C         -53.679314     -147.963074      -48.460232
 C         -53.044632     -148.571259      -49.650372
 C         -54.439743     -146.718460      -48.599358
 C         -54.161953     -148.738449      -50.643929
 C         -55.508266     -146.946182      -49.671852
 C         -55.000816     -147.501053      -50.975277
 H         -52.675179     -149.616684      -49.393398
 H         -52.355713     -147.823624      -49.801773
 H         -55.068314     -146.689819      -47.619728
 H         -53.947647     -145.741287      -48.716431
 H         -54.757904     -149.640854      -50.285797
 H         -53.649490     -148.925842      -51.594410
 H         -56.028069     -145.943253      -49.934669
 H         -56.238903     -147.611481      -49.161957
 H         -55.876842     -147.738510      -51.652863
 H         -54.403492     -146.734695      -51.496109
