20
 generated by VMD
 C         -29.667820      -73.997246      -20.505451
 N         -30.034933      -75.085953      -20.264061
 H         -26.812433      -74.370117      -19.025162
 H         -29.432777      -73.050461      -20.819542
 C         -26.386395      -74.171097      -20.002083
 C         -25.985252      -75.320084      -20.862452
 C         -26.029766      -72.780815      -20.413622
 C         -26.040995      -74.901627      -22.353937
 C         -26.054178      -72.623222      -21.894152
 C         -25.305435      -73.583084      -22.735739
 H         -26.882820      -76.091537      -20.746307
 H         -24.994217      -75.680946      -20.593422
 H         -26.762171      -72.044029      -20.087999
 H         -24.972904      -72.614288      -19.958542
 H         -27.033083      -74.730347      -22.738754
 H         -25.695482      -75.778870      -22.895794
 H         -25.613888      -71.597450      -22.256075
 H         -27.047937      -72.534050      -22.365667
 H         -25.518280      -73.404762      -23.789740
 H         -24.252558      -73.566193      -22.475235
