20
 generated by VMD
 C         -11.769774      -41.618481       -6.186890
 N         -10.844419      -41.869236       -6.746368
 H         -14.649907      -41.366341       -8.540040
 H         -15.387158      -40.764206       -9.956059
 C         -15.346337      -41.742603       -9.308862
 C         -16.635414      -42.234592       -8.751173
 C         -14.636483      -42.792618      -10.129671
 C         -17.594511      -42.509491       -9.894391
 C         -15.508753      -43.094158      -11.333494
 C         -16.949852      -43.458145      -10.896544
 H         -17.074402      -41.477764       -8.067580
 H         -16.475847      -43.227787       -8.288407
 H         -13.668184      -42.446186      -10.395840
 H         -14.559048      -43.694546       -9.528960
 H         -17.886356      -41.600368      -10.414344
 H         -18.490059      -42.940922       -9.444205
 H         -15.061950      -44.022202      -11.872170
 H         -15.458917      -42.329739      -12.052374
 H         -17.581739      -43.688225      -11.770446
 H         -16.913322      -44.418346      -10.368231
