20
 generated by VMD
 C          -2.110759       -8.646280       -0.839298
 N          -1.835809       -8.134436        0.138532
 H          -3.019178       -9.430717        2.936325
 H          -1.867966      -10.708139        3.237315
 C          -2.974494      -10.461178        3.183233
 C          -3.565562      -11.445038        2.138179
 C          -3.478940      -10.717430        4.559613
 C          -3.332129      -12.942963        2.561701
 C          -3.356470      -12.193076        4.963529
 C          -3.957302      -13.211853        3.996638
 H          -3.153372      -11.342256        1.102540
 H          -4.646317      -11.281977        2.066322
 H          -2.893314      -10.014863        5.262802
 H          -4.530469      -10.365724        4.733635
 H          -2.282201      -13.279860        2.637104
 H          -3.840612      -13.681138        1.907906
 H          -3.704072      -12.447279        5.970652
 H          -2.313280      -12.426850        4.950875
 H          -3.723982      -14.221992        4.349181
 H          -5.045487      -13.212527        4.004346
