20
 generated by VMD
 C         -36.624508      -98.202766      -26.618153
 N         -37.753963      -98.340652      -26.874077
 H         -36.488659      -96.343170      -28.781425
 H         -35.538528      -98.035172      -26.574146
 C         -35.654236      -96.281471      -29.460577
 C         -35.461075      -97.008888      -30.697184
 C         -34.475475      -95.303955      -29.060749
 C         -35.141869      -96.109337      -31.865692
 C         -33.985676      -94.419868      -30.239717
 C         -33.882111      -95.204430      -31.523378
 H         -36.366009      -97.597664      -30.945681
 H         -34.709862      -97.743507      -30.548389
 H         -34.545887      -94.681053      -28.178669
 H         -33.607143      -95.980782      -28.895821
 H         -36.030663      -95.518448      -32.074936
 H         -34.804821      -96.604454      -32.738392
 H         -33.113091      -93.850197      -30.025623
 H         -34.728928      -93.584465      -30.438745
 H         -33.879997      -94.369598      -32.191757
 H         -32.967373      -95.705032      -31.467560
