20
 generated by VMD
 C         -12.331084      -27.504169       -4.627073
 N         -13.148698      -28.186424       -4.963162
 H         -10.832174      -30.244364       -2.670321
 H         -10.899634      -28.830269       -3.702148
 C         -10.203982      -29.601688       -3.317440
 C          -9.618799      -30.266771       -4.548223
 C          -9.177247      -29.031387       -2.443258
 C          -8.646164      -29.394196       -5.260907
 C          -8.331891      -28.024712       -3.264536
 C          -7.630250      -28.797607       -4.358498
 H         -10.372499      -30.573914       -5.330701
 H          -9.147954      -31.172935       -4.204751
 H          -9.661914      -28.473909       -1.629272
 H          -8.573428      -29.835756       -2.088442
 H          -9.158059      -28.557899       -5.782631
 H          -8.187171      -29.971792       -6.126449
 H          -7.636092      -27.477022       -2.591598
 H          -9.051980      -27.322266       -3.644199
 H          -6.963760      -28.158455       -4.948709
 H          -6.931020      -29.527220       -3.965748
