20
 generated by VMD
 C         -20.496099      -61.695091      -17.367176
 N         -19.507811      -61.287083      -17.005236
 H         -21.776350      -64.911346      -16.636570
 H         -21.374521      -62.079681      -17.968668
 C         -22.777723      -65.047028      -17.057251
 C         -23.081345      -64.252396      -18.251425
 C         -23.879045      -65.369324      -16.026560
 C         -24.394438      -64.678215      -18.852131
 C         -25.303938      -65.529549      -16.610933
 C         -25.463591      -64.547379      -17.815483
 H         -22.246166      -64.456917      -18.951715
 H         -22.978212      -63.167667      -18.082504
 H         -23.458305      -66.190201      -15.441111
 H         -23.949245      -64.446671      -15.384094
 H         -24.256390      -65.696060      -19.123146
 H         -24.559185      -63.976185      -19.694250
 H         -26.069775      -65.298264      -15.908941
 H         -25.387062      -66.540810      -16.970852
 H         -26.335926      -64.841805      -18.372972
 H         -25.457203      -63.545052      -17.407833
