20
 generated by VMD
 C         -40.686047     -100.223610      -30.246847
 N         -41.047020     -100.411880      -29.157513
 H         -37.415520     -100.505554      -30.785961
 H         -40.180721      -99.991669      -31.251902
 C         -36.510258     -100.020096      -30.842648
 C         -36.125359      -99.923744      -32.204391
 C         -35.364540     -100.008705      -29.880728
 C         -35.098640      -98.793381      -32.466541
 C         -34.273552      -98.905075      -30.014362
 C         -33.880985      -98.585724      -31.486437
 H         -37.051060      -99.769539      -32.848412
 H         -35.743614     -100.869507      -32.542053
 H         -35.719952     -100.026054      -28.783428
 H         -34.810394     -100.918037      -30.030647
 H         -35.611954      -97.810577      -32.559380
 H         -34.675301      -98.944862      -33.532825
 H         -33.392063      -99.251190      -29.421175
 H         -34.681942      -98.032982      -29.532007
 H         -33.526112      -97.555031      -31.539848
 H         -33.136951      -99.353928      -31.642466
