20
 generated by VMD
 C         -40.522625      -99.871056      -29.331467
 N         -39.874977     -100.160675      -28.413452
 H         -37.511345      -98.650299      -30.532375
 H         -40.999573      -99.596954      -30.295441
 C         -36.434227      -98.960884      -30.767864
 C         -35.820885      -99.259384      -32.188637
 C         -35.417477      -98.923996      -29.728336
 C         -34.779652      -98.126221      -32.438587
 C         -34.256676      -97.828827      -29.982368
 C         -33.676491      -98.149200      -31.316360
 H         -36.498543      -99.270981      -33.049721
 H         -35.373234     -100.285690      -32.022331
 H         -35.926731      -98.690262      -28.799324
 H         -34.865604      -99.910408      -29.563536
 H         -35.417427      -97.219566      -32.406719
 H         -34.464405      -98.218193      -33.441471
 H         -33.483013      -97.978806      -29.251045
 H         -34.759697      -96.852173      -30.004648
 H         -32.965260      -97.409668      -31.652815
 H         -33.173717      -99.143051      -31.276321
