20
 generated by VMD
 C         -79.342926     -205.941727      -74.540855
 N         -79.312454     -206.703186      -73.620567
 H         -78.708832     -206.201492      -70.689568
 H         -79.332718     -205.369064      -75.416504
 C         -77.677513     -206.415207      -70.411972
 C         -76.650444     -205.641602      -71.374031
 C         -77.275757     -207.787949      -69.822342
 C         -75.376640     -205.578033      -70.636688
 C         -75.874191     -207.652176      -69.257431
 C         -74.883942     -206.912903      -70.107475
 H         -77.208366     -204.803146      -71.617752
 H         -76.426331     -206.174805      -72.273643
 H         -78.047890     -208.128143      -69.064522
 H         -77.260338     -208.497879      -70.685051
 H         -75.497063     -204.900177      -69.806938
 H         -74.682274     -205.220337      -71.390083
 H         -75.449516     -208.657486      -69.019394
 H         -75.904808     -207.194870      -68.292839
 H         -74.105156     -206.737930      -69.387161
 H         -74.516800     -207.509598      -71.004120
