20
 generated by VMD
 C         -19.258074      -59.935310      -17.089554
 N         -18.984814      -60.783051      -16.393909
 H         -22.617212      -61.638363      -18.032053
 H         -19.391386      -59.174503      -17.960800
 C         -23.362253      -62.200737      -17.442623
 C         -24.412079      -63.039127      -18.133596
 C         -23.251858      -62.310280      -15.949555
 C         -24.035528      -64.489548      -17.942095
 C         -23.444508      -63.858509      -15.575519
 C         -24.125214      -64.885048      -16.489758
 H         -24.344284      -62.767410      -19.162498
 H         -25.351095      -62.870853      -17.589718
 H         -22.270384      -62.003700      -15.667464
 H         -24.045872      -61.714291      -15.495491
 H         -23.021114      -64.846924      -18.287743
 H         -24.873173      -65.034775      -18.388214
 H         -23.894331      -63.896175      -14.517756
 H         -22.436073      -64.269722      -15.187852
 H         -23.860342      -65.896286      -16.362030
 H         -25.165243      -64.812538      -16.222263
