20
 generated by VMD
 C         -21.625000      -65.799713      -16.877745
 N         -20.989618      -66.470642      -16.189880
 H         -24.130280      -63.937813      -18.126486
 H         -22.211168      -65.511108      -17.644629
 C         -24.396694      -64.949684      -18.419369
 C         -24.328203      -65.387115      -19.865946
 C         -25.413795      -65.728188      -17.505560
 C         -24.505995      -66.908928      -20.092344
 C         -25.278423      -67.217453      -17.647514
 C         -25.207357      -67.830124      -19.036791
 H         -23.323830      -65.020813      -20.224775
 H         -24.989912      -64.904526      -20.594793
 H         -25.063536      -65.454857      -16.492834
 H         -26.485832      -65.511787      -17.802692
 H         -23.439844      -67.262627      -20.241705
 H         -24.909763      -67.044540      -21.129477
 H         -26.121809      -67.757484      -17.182354
 H         -24.381506      -67.451408      -17.024597
 H         -24.791603      -68.874924      -19.005804
 H         -26.178301      -68.067154      -19.406288
