20
 generated by VMD
 C         -22.350588      -55.171211      -17.236605
 N         -22.834164      -54.921688      -18.297817
 H         -20.954216      -56.241772      -14.388275
 H         -21.720560      -54.990231      -16.428686
 C         -20.576567      -57.309345      -14.271388
 C         -20.789360      -57.905048      -12.943428
 C         -19.453764      -57.847164      -15.125966
 C         -20.948254      -59.428425      -13.050113
 C         -19.618700      -59.325081      -15.388109
 C         -19.712437      -59.988258      -13.901460
 H         -21.654558      -57.352516      -12.458351
 H         -19.863586      -57.647057      -12.441252
 H         -19.378181      -57.340008      -16.077732
 H         -18.524868      -57.550526      -14.574627
 H         -21.878876      -59.756886      -13.513730
 H         -20.877180      -59.870857      -12.078428
 H         -18.672924      -59.665413      -15.843393
 H         -20.520966      -59.580761      -15.929443
 H         -19.863945      -61.075222      -13.856076
 H         -18.856337      -59.790295      -13.332926
