20
 generated by VMD
 C         -58.984444     -159.744217      -57.144173
 N         -58.291370     -160.103882      -57.975880
 H         -58.957417     -161.148911      -54.869194
 H         -59.583569     -159.402512      -56.310322
 C         -59.489166     -161.787964      -54.163868
 C         -59.010422     -162.108154      -52.842537
 C         -60.832005     -162.137787      -54.549026
 C         -59.979954     -161.930115      -51.638859
 C         -61.839817     -161.957138      -53.408516
 C         -61.339622     -162.442368      -52.106857
 H         -58.132015     -161.540375      -52.728031
 H         -58.653324     -163.116959      -52.758484
 H         -61.113873     -161.581757      -55.551323
 H         -60.958931     -163.155289      -54.848202
 H         -60.137218     -160.904099      -51.402069
 H         -59.683945     -162.582275      -50.838081
 H         -62.684639     -162.509338      -53.737564
 H         -62.087978     -160.927643      -53.354294
 H         -62.054821     -162.042801      -51.308144
 H         -61.356213     -163.536758      -52.067623
