20
 generated by VMD
 C         -10.489870      -25.442188       -0.810912
 N         -11.250890      -24.675377       -0.557041
 H          -6.641119      -25.679476       -0.951204
 H          -8.300486      -25.251226       -1.507018
 C          -7.253852      -25.204620       -1.747275
 C          -7.100788      -25.965878       -3.005916
 C          -7.034529      -23.705961       -2.016001
 C          -7.865630      -25.525949       -4.170191
 C          -7.871003      -23.211479       -3.171038
 C          -7.609623      -24.033642       -4.402564
 H          -7.323701      -27.023775       -2.821407
 H          -6.100846      -26.040756       -3.243643
 H          -7.186123      -23.138042       -1.106996
 H          -5.964499      -23.459381       -2.334298
 H          -8.904952      -25.703581       -3.942349
 H          -7.713770      -26.158770       -5.052279
 H          -7.598231      -22.150015       -3.267893
 H          -8.943632      -23.235901       -2.912108
 H          -8.131807      -23.665022       -5.285927
 H          -6.516331      -23.977346       -4.749472
