20
 generated by VMD
 C         -78.633614     -209.733063      -76.767845
 N         -77.711060     -210.089783      -77.341217
 H         -79.454369     -211.568222      -74.243309
 H         -79.516113     -209.493896      -76.240463
 C         -79.536148     -212.082291      -73.288940
 C         -78.195297     -212.352905      -72.656670
 C         -80.548660     -213.199173      -73.056335
 C         -78.246948     -212.737701      -71.255325
 C         -80.746216     -213.351273      -71.593208
 C         -79.460175     -213.783707      -70.926300
 H         -77.597832     -211.479980      -72.802330
 H         -77.767998     -213.170013      -73.193077
 H         -81.514267     -212.848755      -73.499306
 H         -80.346275     -214.090576      -73.540771
 H         -78.518494     -211.949707      -70.568108
 H         -77.254608     -213.222534      -70.992188
 H         -81.366699     -214.286819      -71.344048
 H         -81.075233     -212.355759      -71.046722
 H         -79.552101     -213.702515      -69.866669
 H         -79.204163     -214.739487      -71.465706
