20
 generated by VMD
 C         -68.563942     -192.882645      -66.187393
 N         -68.326271     -193.295135      -67.255318
 H         -69.996132     -189.807236      -65.403450
 H         -69.059288     -192.412125      -65.405594
 C         -70.904556     -190.343124      -65.284492
 C         -71.636200     -190.831512      -66.486931
 C         -71.564240     -190.587479      -63.910618
 C         -72.616638     -192.007248      -66.077370
 C         -73.055321     -190.614517      -64.007904
 C         -73.655182     -191.588104      -64.990044
 H         -70.835503     -191.324707      -67.157410
 H         -72.134590     -190.014572      -66.929031
 H         -71.174934     -191.624130      -63.621700
 H         -71.381660     -189.763107      -63.288933
 H         -71.990944     -192.908295      -65.890717
 H         -73.097832     -192.459503      -66.953346
 H         -73.349083     -189.664810      -64.386063
 H         -73.582512     -190.712097      -63.001778
 H         -73.949318     -192.458420      -64.449898
 H         -74.619232     -191.209091      -65.640411
