20
 generated by VMD
 C         -20.946434      -56.539433      -16.998663
 N         -21.179596      -55.581356      -17.604843
 H         -22.552254      -58.423904      -16.395000
 H         -20.745630      -57.369816      -16.149372
 C         -22.134705      -59.186237      -15.737627
 C         -22.035280      -58.975407      -14.202675
 C         -21.704235      -60.420872      -16.366108
 C         -21.004225      -59.946705      -13.603489
 C         -20.502239      -61.047092      -15.667959
 C         -20.809904      -61.221626      -14.204408
 H         -23.028725      -59.318050      -13.906507
 H         -21.797266      -57.979610      -13.842047
 H         -22.568027      -61.096981      -16.283028
 H         -21.522404      -60.208050      -17.435234
 H         -21.383162      -60.054268      -12.575064
 H         -20.008980      -59.450451      -13.603994
 H         -19.731226      -60.224365      -15.599548
 H         -20.157717      -61.960880      -16.214899
 H         -21.711264      -61.828449      -14.121790
 H         -20.089878      -61.895996      -13.725561
