20
 generated by VMD
 C         -59.846172     -169.594543      -55.550068
 N         -59.695904     -168.591873      -55.033043
 H         -63.359379     -170.382294      -56.483112
 H         -59.870705     -170.518280      -56.099361
 C         -63.236633     -169.347153      -56.771809
 C         -62.727974     -168.946518      -58.186638
 C         -63.509804     -168.336792      -55.660858
 C         -63.433411     -167.671600      -58.639248
 C         -64.111336     -167.073853      -56.299191
 C         -63.523693     -166.561386      -57.585629
 H         -63.015270     -169.725235      -58.788857
 H         -61.572456     -169.007294      -58.221542
 H         -64.223526     -168.618591      -55.000534
 H         -62.694309     -168.072067      -55.102070
 H         -64.420403     -168.025955      -59.051029
 H         -62.843651     -167.143173      -59.426266
 H         -64.018044     -166.270966      -55.593418
 H         -65.117867     -167.205582      -56.310093
 H         -64.248009     -165.849152      -58.006702
 H         -62.487602     -166.106934      -57.537022
