20
 generated by VMD
 C          -1.661528      -14.101045        2.155641
 N          -1.899570      -13.634857        1.173792
 H          -3.705101      -17.107714        1.273834
 H          -4.305038      -17.157444       -0.405310
 C          -4.572297      -17.062193        0.649749
 C          -5.275269      -15.674815        0.712091
 C          -5.522828      -18.251263        0.907474
 C          -6.650078      -15.657123       -0.067164
 C          -6.780563      -18.132141        0.051883
 C          -7.534025      -16.826324        0.216561
 H          -4.701037      -14.772489        0.376562
 H          -5.560209      -15.533052        1.719690
 H          -4.967344      -19.199945        0.690476
 H          -5.946994      -18.152071        1.913402
 H          -6.419772      -15.549934       -1.188762
 H          -7.099129      -14.679242        0.182672
 H          -7.454942      -19.014099        0.309482
 H          -6.616119      -18.219944       -1.031923
 H          -8.321069      -16.818850       -0.520100
 H          -8.044965      -16.861723        1.175188
