20
 generated by VMD
 C         -26.818254      -71.792686      -17.545090
 N         -26.759342      -72.775108      -16.974031
 H         -24.528927      -69.907310      -18.611563
 H         -26.647537      -70.824188      -18.208427
 C         -24.832993      -70.061699      -19.641056
 C         -24.036329      -71.094551      -20.388510
 C         -25.687098      -69.166420      -20.473583
 C         -25.056757      -71.886406      -21.280416
 C         -26.762079      -69.869164      -21.200354
 C         -26.065048      -70.947960      -22.032349
 H         -23.471083      -71.634583      -19.639099
 H         -23.286026      -70.516991      -21.010214
 H         -26.243116      -68.433357      -19.799547
 H         -25.025421      -68.644012      -21.183882
 H         -25.679798      -72.555107      -20.778257
 H         -24.395784      -72.443481      -21.964592
 H         -27.251614      -69.195435      -21.960094
 H         -27.543089      -70.464165      -20.606916
 H         -26.738792      -71.458298      -22.694214
 H         -25.311600      -70.573059      -22.653866
