20
 generated by VMD
 C         -19.096504      -63.005718      -17.084747
 N         -20.216438      -62.778446      -16.896444
 H         -22.659403      -64.008102      -17.065216
 H         -18.093260      -63.060623      -16.994215
 C         -23.659323      -64.257217      -17.267738
 C         -24.139057      -64.033401      -18.617289
 C         -24.435150      -65.167160      -16.359779
 C         -24.576036      -65.378273      -19.188919
 C         -25.022327      -66.384384      -17.002913
 C         -25.667589      -66.146133      -18.363861
 H         -23.209898      -63.815376      -19.260241
 H         -24.658089      -63.159752      -19.008945
 H         -23.625441      -65.438820      -15.636963
 H         -25.248634      -64.662552      -15.972027
 H         -23.747448      -66.112831      -19.289436
 H         -24.899408      -65.286423      -20.200237
 H         -25.888161      -66.763184      -16.386354
 H         -24.266222      -67.178436      -16.958614
 H         -26.028936      -67.098999      -18.877611
 H         -26.478985      -65.471130      -18.190077
