20
 generated by VMD
 C         -22.165159      -52.919582      -12.398538
 N         -23.258644      -52.443607      -12.696266
 H         -20.254213      -53.989147      -14.143777
 H         -21.319296      -53.381824      -12.459892
 C         -19.341188      -53.717598      -13.696898
 C         -18.816303      -52.350353      -13.824034
 C         -18.329092      -54.792355      -13.484446
 C         -17.297369      -52.362267      -14.324141
 C         -17.205288      -54.324238      -12.590905
 C         -16.422113      -53.203148      -13.323672
 H         -18.947796      -51.808609      -12.844248
 H         -19.367277      -51.775993      -14.522676
 H         -18.822660      -55.614124      -13.019655
 H         -18.023161      -55.039379      -14.549501
 H         -16.937880      -51.329044      -14.382117
 H         -17.179140      -52.761276      -15.324675
 H         -16.532782      -55.121101      -12.434224
 H         -17.539249      -53.962620      -11.580447
 H         -15.990374      -52.499081      -12.579890
 H         -15.534456      -53.559273      -13.954618
