20
 generated by VMD
 C         -49.924931     -131.429947      -46.645988
 N         -50.285583     -131.652679      -47.673340
 H         -48.355042     -131.795776      -43.981621
 H         -49.930668     -130.924667      -45.742146
 C         -48.937542     -132.254547      -43.216942
 C         -49.662685     -133.575272      -43.191570
 C         -48.737343     -131.679810      -41.853878
 C         -48.895836     -134.565125      -42.439880
 C         -47.995117     -132.722000      -40.929516
 C         -48.583355     -134.115509      -41.014679
 H         -49.789787     -133.959641      -44.212025
 H         -50.607231     -133.616165      -42.722958
 H         -48.109318     -130.772980      -41.872292
 H         -49.647926     -131.552109      -41.403450
 H         -47.865643     -134.639847      -42.933201
 H         -49.361958     -135.619171      -42.444992
 H         -47.990223     -132.401413      -39.893929
 H         -46.974190     -132.683685      -41.428398
 H         -47.903255     -134.834961      -40.465130
 H         -49.451138     -134.198349      -40.297218
