20
 generated by VMD
 C         -19.733126      -50.075085       -9.326702
 N         -19.668972      -51.156052       -9.680223
 H         -16.546150      -48.159241       -9.964084
 H         -20.106741      -48.933033       -9.337936
 C         -16.575106      -48.151371      -11.087420
 C         -15.553390      -49.087227      -11.660030
 C         -17.448143      -47.328796      -11.945764
 C         -16.189123      -49.962357      -12.771102
 C         -17.876574      -47.990112      -13.295518
 C         -16.897514      -49.051243      -13.800165
 H         -15.256816      -49.794621      -10.831837
 H         -14.709167      -48.539997      -12.061865
 H         -18.360758      -46.999306      -11.473618
 H         -16.896460      -46.442413      -12.251663
 H         -16.968523      -50.631359      -12.289997
 H         -15.372355      -50.517593      -13.279680
 H         -18.072653      -47.129066      -14.050685
 H         -18.806492      -48.540207      -13.083797
 H         -17.339518      -49.690628      -14.561726
 H         -16.188974      -48.453690      -14.359995
