20
 generated by VMD
 C         -30.064779      -89.452286      -25.557587
 N         -29.167130      -90.050507      -26.091391
 H         -32.152626      -91.552338      -27.402946
 H         -30.955486      -88.978348      -25.290573
 C         -32.844322      -90.708649      -27.197992
 C         -34.274292      -91.181404      -27.268208
 C         -32.521629      -89.579094      -28.078346
 C         -35.221886      -90.044327      -26.767851
 C         -33.524426      -88.411781      -27.872631
 C         -34.981873      -88.765083      -27.697474
 H         -34.373341      -92.091148      -26.667234
 H         -34.610851      -91.558693      -28.242260
 H         -31.493916      -89.169586      -27.937420
 H         -32.488991      -90.094360      -29.073305
 H         -34.994843      -89.643440      -25.778111
 H         -36.250393      -90.408020      -26.952259
 H         -33.507477      -87.710197      -28.703363
 H         -33.151020      -87.874062      -27.026094
 H         -35.652805      -87.919067      -27.417559
 H         -35.544788      -89.106682      -28.758898
