20
 generated by VMD
 C         -79.783836     -207.027252      -73.493858
 N         -79.970253     -205.988861      -74.071587
 H         -78.298141     -205.261246      -70.432137
 H         -79.566315     -207.859756      -72.884163
 C         -77.224777     -205.448853      -70.278389
 C         -76.204552     -204.618698      -70.859962
 C         -76.855858     -206.647644      -69.579559
 C         -74.761368     -204.807632      -70.326691
 C         -75.428253     -206.928589      -69.189827
 C         -74.373886     -206.307495      -70.182281
 H         -76.659935     -203.571289      -70.949196
 H         -76.116341     -205.048431      -71.912994
 H         -77.600494     -206.786133      -68.775230
 H         -77.111389     -207.384598      -70.417297
 H         -74.622208     -204.366440      -69.346687
 H         -74.016899     -204.393677      -71.005325
 H         -75.115479     -208.020615      -69.225456
 H         -75.311455     -206.490173      -68.217979
 H         -73.383171     -206.311966      -69.656914
 H         -74.274483     -206.792557      -71.170273
