20
 generated by VMD
 C         -37.939407     -114.336716      -35.367252
 N         -38.674576     -115.135712      -35.039013
 H         -41.440098     -115.046600      -36.556789
 H         -37.286373     -113.439476      -35.389450
 C         -42.409409     -115.178551      -36.864246
 C         -42.866623     -114.962021      -38.293049
 C         -43.487213     -114.981766      -35.771908
 C         -44.104183     -115.868500      -38.549927
 C         -44.837154     -115.623734      -36.080963
 C         -45.225498     -115.608810      -37.566353
 H         -42.053108     -115.401619      -38.866253
 H         -43.094982     -113.916885      -38.504169
 H         -43.058159     -115.405121      -34.899391
 H         -43.606506     -113.952316      -35.448601
 H         -43.724144     -116.866264      -38.471130
 H         -44.345875     -115.673828      -39.636932
 H         -45.712772     -115.341080      -35.512383
 H         -44.752148     -116.685425      -35.712734
 H         -46.165478     -116.340988      -37.593430
 H         -45.607887     -114.592468      -37.806938
