20
 generated by VMD
 C         -22.418455      -68.347008      -16.652149
 N         -22.215231      -68.653839      -15.532318
 H         -24.090075      -66.282967      -18.316132
 H         -22.535524      -68.032028      -17.604374
 C         -24.669157      -66.483925      -19.190451
 C         -23.952187      -67.213417      -20.168713
 C         -26.182791      -66.685242      -18.984791
 C         -24.416155      -68.658485      -20.272150
 C         -26.705763      -68.128517      -19.191929
 C         -25.977943      -68.758270      -20.393000
 H         -22.915827      -67.195183      -19.932529
 H         -24.064564      -66.617172      -21.189201
 H         -26.326555      -66.483353      -17.963095
 H         -26.595814      -65.941223      -19.653084
 H         -24.047716      -69.248520      -19.479528
 H         -23.994318      -69.233719      -21.118940
 H         -27.755320      -68.043846      -19.286764
 H         -26.565826      -68.783150      -18.321033
 H         -26.253799      -69.817062      -20.386602
 H         -26.393028      -68.284630      -21.309713
