20
 generated by VMD
 C         -40.770851     -100.878372      -32.675194
 N         -41.525539     -101.128174      -31.851767
 H         -38.431576     -102.421768      -32.378975
 H         -40.316170     -100.570511      -33.648029
 C         -37.408329     -102.727600      -32.093235
 C         -36.026596     -102.802803      -32.766827
 C         -37.352077     -102.723198      -30.525211
 C         -35.361511     -101.462746      -32.385208
 C         -36.218903     -101.546021      -30.056288
 C         -35.003155     -101.480881      -30.899834
 H         -36.179882     -102.849510      -33.831581
 H         -35.451942     -103.674309      -32.447636
 H         -38.334488     -102.650291      -30.025591
 H         -36.878948     -103.623878      -30.177752
 H         -36.092129     -100.749977      -32.752781
 H         -34.534344     -101.312645      -33.066132
 H         -35.953499     -101.763275      -28.998190
 H         -36.785366     -100.541702      -30.049431
 H         -34.456295     -100.608063      -30.619247
 H         -34.433834     -102.389763      -30.647581
