20
 generated by VMD
 C          -3.618706      -20.086796        3.379225
 N          -4.089343      -19.138683        3.016847
 H          -5.241666      -19.779263       -0.036388
 H          -6.131993      -21.087847       -0.664465
 C          -6.059646      -19.990341       -0.755416
 C          -5.719575      -19.540155       -2.156591
 C          -7.365536      -19.394163       -0.285515
 C          -6.820217      -19.780741       -3.171970
 C          -8.447841      -19.672291       -1.326256
 C          -8.110546      -19.081974       -2.751878
 H          -4.786632      -20.100159       -2.499803
 H          -5.473805      -18.513136       -2.132060
 H          -7.649422      -19.970232        0.563679
 H          -7.304561      -18.307680       -0.151760
 H          -6.966287      -20.894186       -3.402645
 H          -6.441401      -19.345043       -4.135847
 H          -9.392879      -19.164192       -1.004178
 H          -8.698214      -20.720663       -1.536570
 H          -8.952082      -19.324898       -3.394308
 H          -8.061604      -18.000593       -2.692439
