20
 generated by VMD
 C         -40.438908     -117.548790      -34.544762
 N         -39.468044     -117.032524      -34.965176
 H         -41.817436     -116.098701      -37.176270
 H         -41.403294     -117.781998      -34.255741
 C         -42.779312     -116.516518      -37.547291
 C         -42.944546     -116.542023      -39.021362
 C         -43.996593     -116.322914      -36.738037
 C         -44.183544     -117.325737      -39.469585
 C         -45.304146     -116.888603      -37.309029
 C         -45.395000     -116.719231      -38.805313
 H         -42.008595     -117.026527      -39.350216
 H         -43.060978     -115.481773      -39.381310
 H         -43.964169     -116.762543      -35.757904
 H         -44.007538     -115.175835      -36.690628
 H         -43.967571     -118.389359      -39.227329
 H         -44.249912     -117.286240      -40.533314
 H         -46.318626     -116.622795      -36.986526
 H         -45.357681     -117.954323      -37.064175
 H         -46.393940     -117.203773      -39.205070
 H         -45.535442     -115.663246      -38.833553
