20
 generated by VMD
 C         -31.256536      -75.734116      -21.571171
 N         -32.269924      -75.238953      -21.275011
 H         -27.714779      -75.182671      -19.870102
 H         -30.437029      -76.251175      -22.116179
 C         -26.817924      -75.177216      -20.511501
 C         -26.462242      -76.358269      -21.297596
 C         -25.834002      -74.013931      -20.351902
 C         -25.947868      -75.845383      -22.779791
 C         -25.340342      -73.564201      -21.791557
 C         -24.868288      -74.736572      -22.651800
 H         -27.308321      -77.030930      -21.470831
 H         -25.682219      -76.866211      -20.684427
 H         -26.213631      -73.071831      -19.913246
 H         -25.062471      -74.134651      -19.659866
 H         -26.799040      -75.393669      -23.264917
 H         -25.620333      -76.670952      -23.380564
 H         -24.410416      -72.953018      -21.647043
 H         -26.181084      -73.065269      -22.343809
 H         -24.642170      -74.452942      -23.664440
 H         -23.965128      -75.198677      -22.254560
