20
 generated by VMD
 C         -59.489822     -158.213028      -57.232986
 N         -58.439926     -158.547699      -57.733978
 H         -60.443562     -158.239822      -53.486916
 H         -60.473862     -157.946091      -56.874203
 C         -60.004616     -159.067276      -52.897778
 C         -58.544876     -159.114838      -52.491314
 C         -60.675018     -160.427582      -53.137661
 C         -58.353069     -160.215240      -51.371754
 C         -60.411804     -161.589478      -52.158352
 C         -58.965767     -161.555374      -51.694660
 H         -58.072189     -158.118607      -52.241131
 H         -58.058563     -159.319061      -53.429878
 H         -61.702797     -160.469559      -53.194645
 H         -60.329308     -160.741623      -54.117729
 H         -58.859791     -160.019928      -50.340748
 H         -57.372208     -160.333481      -51.098724
 H         -60.626938     -162.492294      -52.778885
 H         -61.075130     -161.710495      -51.345692
 H         -58.821213     -162.233337      -50.784069
 H         -58.437786     -161.996170      -52.518074
