20
 generated by VMD
 C         -40.443672     -117.548645      -34.551014
 N         -39.459549     -117.042145      -34.969242
 H         -41.837269     -116.144005      -37.180565
 H         -41.434662     -117.884323      -34.210049
 C         -42.763905     -116.512604      -37.527748
 C         -42.944130     -116.558517      -39.008595
 C         -44.012508     -116.314278      -36.759003
 C         -44.183384     -117.322563      -39.479851
 C         -45.316528     -116.895454      -37.315861
 C         -45.430672     -116.720757      -38.823021
 H         -42.048534     -117.063370      -39.350044
 H         -43.048977     -115.523682      -39.319649
 H         -43.910149     -116.743607      -35.695404
 H         -43.936539     -115.251495      -36.623188
 H         -43.886745     -118.365768      -39.171608
 H         -44.178493     -117.303688      -40.581055
 H         -46.317802     -116.660721      -36.976589
 H         -45.391003     -117.907555      -37.068516
 H         -46.264931     -117.223351      -39.177483
 H         -45.528812     -115.688110      -38.906357
