20
 generated by VMD
 C          -6.787178      -22.734499        2.093667
 N          -6.106944      -22.837744        2.989047
 H          -5.787645      -20.271172       -0.402116
 H          -7.393877      -21.030533       -0.440652
 C          -6.585832      -20.620352       -1.004168
 C          -5.959798      -21.645603       -1.957076
 C          -7.224356      -19.451267       -1.737079
 C          -7.063476      -22.061310       -2.985912
 C          -8.237734      -19.839531       -2.777952
 C          -7.613528      -20.849108       -3.740206
 H          -5.651977      -22.560848       -1.379452
 H          -4.948150      -21.330112       -2.371074
 H          -7.797836      -18.829437       -1.035171
 H          -6.485298      -18.791998       -2.309270
 H          -7.891725      -22.613194       -2.489836
 H          -6.598111      -22.690315       -3.755839
 H          -8.513328      -18.933668       -3.347044
 H          -9.093348      -20.367037       -2.355024
 H          -8.442345      -21.162216       -4.375021
 H          -6.908031      -20.388363       -4.444378
