20
 generated by VMD
 C          -3.108166      -17.593676        2.608689
 N          -3.024391      -17.997860        1.571849
 H          -5.309726      -19.406599        0.959386
 H          -5.465062      -20.432560       -0.437775
 C          -5.807302      -19.509571        0.014153
 C          -5.574183      -18.199823       -0.722630
 C          -7.389416      -19.627451        0.266158
 C          -6.339340      -17.997498       -2.034312
 C          -8.109282      -19.441605       -1.106851
 C          -7.828133      -18.064341       -1.770727
 H          -4.487406      -18.179937       -0.949294
 H          -5.768978      -17.285843       -0.171331
 H          -7.696234      -20.551031        0.703355
 H          -7.685968      -18.986214        1.013868
 H          -5.982437      -18.755552       -2.762551
 H          -6.055172      -17.136772       -2.576060
 H          -9.216744      -19.552708       -1.075960
 H          -7.790899      -20.278715       -1.800026
 H          -8.345186      -18.033789       -2.736634
 H          -8.193024      -17.247231       -1.152475
