20
 generated by VMD
 C         -10.765127      -37.344948       -8.246529
 N         -10.781721      -36.309200       -7.773295
 H         -13.389561      -37.392460       -7.745270
 H         -14.292662      -37.990234       -6.418736
 C         -13.946493      -38.249836       -7.436885
 C         -13.122678      -39.566563       -7.347468
 C         -15.128342      -38.346008       -8.450023
 C         -13.919203      -40.836849       -7.312357
 C         -15.978678      -39.628941       -8.195471
 C         -15.068111      -40.859188       -8.372061
 H         -12.456336      -39.527908       -6.447263
 H         -12.531404      -39.553726       -8.303104
 H         -15.827680      -37.527428       -8.392409
 H         -14.694447      -38.467480       -9.503337
 H         -14.398012      -40.823635       -6.354487
 H         -13.274337      -41.742401       -7.444964
 H         -16.851135      -39.639874       -8.785801
 H         -16.281359      -39.540485       -7.091861
 H         -15.653195      -41.776428       -8.296949
 H         -14.570959      -40.872871       -9.397782
