20
 generated by VMD
 C         -79.829163     -205.406937      -71.652855
 N         -79.880257     -206.569046      -71.560509
 H         -76.143898     -204.186508      -72.109680
 H         -79.791016     -204.375259      -71.873291
 C         -76.265007     -203.901978      -71.044098
 C         -75.394035     -202.820023      -70.413475
 C         -76.324821     -205.112366      -70.014763
 C         -73.950706     -203.282089      -70.260963
 C         -75.090523     -205.175522      -69.105682
 C         -73.790863     -204.727982      -69.783524
 H         -75.903603     -202.600220      -69.425240
 H         -75.489685     -201.947571      -71.007538
 H         -77.299255     -205.016968      -69.513962
 H         -76.414963     -206.058136      -70.554382
 H         -73.356674     -202.474106      -69.699593
 H         -73.591347     -203.190033      -71.328438
 H         -74.894691     -206.241150      -68.778122
 H         -75.304260     -204.678391      -68.189827
 H         -72.909981     -204.659836      -69.092674
 H         -73.499741     -205.376770      -70.608727
