20
 generated by VMD
 C         -19.383924      -60.666389      -17.852436
 N         -20.107342      -59.732891      -17.816172
 H         -22.766005      -59.973881      -15.999752
 H         -18.492233      -61.381828      -17.867022
 C         -23.206526      -60.984440      -16.076540
 C         -23.264711      -61.671299      -17.386223
 C         -23.599964      -61.810394      -14.828370
 C         -22.607279      -63.066765      -17.420963
 C         -23.020416      -63.172516      -14.905704
 C         -23.299116      -63.834164      -16.310352
 H         -22.808561      -61.061947      -18.157722
 H         -24.354822      -61.672810      -17.548485
 H         -23.487164      -61.278137      -13.777706
 H         -24.707483      -61.873699      -14.935156
 H         -21.595890      -62.886669      -17.068962
 H         -22.660513      -63.640228      -18.385149
 H         -23.462360      -63.775257      -14.094539
 H         -21.978523      -63.287861      -14.634529
 H         -22.912287      -64.856422      -16.216923
 H         -24.375826      -63.930706      -16.370737
