20
 generated by VMD
 C         -50.749504     -130.851639      -46.413876
 N         -50.272545     -130.920853      -47.418331
 H         -48.161434     -132.015167      -44.226116
 H         -51.250114     -130.883591      -45.438938
 C         -48.495338     -132.337708      -43.280033
 C         -49.080532     -133.698746      -43.119247
 C         -48.416962     -131.433426      -42.136681
 C         -48.463341     -134.387238      -41.891354
 C         -47.864769     -132.023224      -40.879318
 C         -48.512653     -133.412888      -40.666786
 H         -48.991005     -134.243698      -44.090324
 H         -50.172733     -133.579254      -43.008686
 H         -47.677761     -130.520462      -42.494701
 H         -49.423611     -130.983948      -42.030350
 H         -47.500637     -134.745331      -42.270077
 H         -49.042709     -135.319138      -41.665241
 H         -47.993881     -131.293823      -40.097729
 H         -46.736713     -132.314423      -41.030926
 H         -48.163013     -133.925476      -39.750511
 H         -49.527683     -133.123367      -40.362930
