20
 generated by VMD
 C         -79.562904     -206.836838      -74.811440
 N         -80.176086     -206.055496      -74.199043
 H         -78.353363     -206.583893      -71.488564
 H         -78.751839     -207.378967      -75.358582
 C         -77.425766     -206.947159      -71.197639
 C         -76.248390     -206.158478      -71.487999
 C         -77.391861     -208.220047      -70.388931
 C         -75.409218     -206.013275      -70.194817
 C         -76.384140     -208.018311      -69.178185
 C         -74.962257     -207.331635      -69.541290
 H         -76.479057     -205.175491      -71.872269
 H         -75.551086     -206.612091      -72.208191
 H         -78.389946     -208.591751      -70.011330
 H         -76.998497     -209.007217      -71.001244
 H         -75.879166     -205.433060      -69.338669
 H         -74.518326     -205.510666      -70.655785
 H         -76.184982     -209.033264      -68.752449
 H         -76.880409     -207.444168      -68.375610
 H         -74.339973     -207.090561      -68.720894
 H         -74.449249     -208.020248      -70.320953
