20
 generated by VMD
 C         -22.454319      -68.374908      -16.638031
 N         -22.271530      -68.706726      -15.543714
 H         -24.205635      -65.874374      -18.411392
 H         -22.392672      -67.974266      -17.674252
 C         -24.710903      -66.551201      -19.098867
 C         -23.927624      -67.316780      -20.252823
 C         -26.225048      -66.625580      -18.966589
 C         -24.404072      -68.722755      -20.365005
 C         -26.692080      -68.115189      -19.172665
 C         -25.937326      -68.764511      -20.392183
 H         -22.905138      -67.362587      -19.932188
 H         -23.991131      -66.801865      -21.276423
 H         -26.543272      -66.283684      -18.010027
 H         -26.880632      -66.003441      -19.621979
 H         -24.108643      -69.169930      -19.467768
 H         -23.886337      -69.142609      -21.259230
 H         -27.722868      -68.282028      -19.343941
 H         -26.398619      -68.624359      -18.249069
 H         -26.201794      -69.833946      -20.447485
 H         -26.220819      -68.306046      -21.361120
