20
 generated by VMD
 C         -30.472416      -74.335747      -20.983988
 N         -30.586075      -75.408379      -20.507019
 H         -27.786896      -74.390617      -19.891533
 H         -30.242174      -73.387573      -21.322580
 C         -26.841446      -74.494690      -20.348606
 C         -26.263737      -75.740059      -21.047895
 C         -25.936090      -73.349335      -20.348303
 C         -25.967300      -75.285858      -22.558550
 C         -25.647503      -72.971970      -21.788460
 C         -25.089035      -74.060402      -22.725628
 H         -26.982836      -76.698250      -20.883970
 H         -25.379297      -76.040031      -20.412695
 H         -26.385653      -72.446129      -19.882145
 H         -24.924810      -73.537720      -19.763489
 H         -26.952118      -75.003281      -22.909790
 H         -25.589880      -76.050049      -23.208162
 H         -24.930954      -72.228424      -21.997562
 H         -26.645027      -72.784767      -22.224543
 H         -25.045248      -73.755699      -23.791464
 H         -24.110748      -74.283943      -22.277452
