20
 generated by VMD
 C         -78.693810     -209.107346      -77.063614
 N         -79.690590     -208.596451      -76.729240
 H         -78.254585     -209.118271      -73.120605
 H         -77.805870     -209.635208      -77.526550
 C         -78.231911     -209.800995      -72.299309
 C         -76.920494     -209.824524      -71.476891
 C         -79.116776     -211.022018      -72.423454
 C         -77.260307     -210.575165      -70.133728
 C         -79.445091     -211.492584      -70.887627
 C         -78.148438     -211.800781      -70.124496
 H         -76.530006     -208.853989      -71.254120
 H         -76.108360     -210.194855      -72.129417
 H         -80.069832     -210.682129      -72.896484
 H         -78.657524     -211.736832      -73.040443
 H         -77.696098     -209.907608      -69.378532
 H         -76.299294     -210.831467      -69.690788
 H         -80.056564     -212.492142      -71.078506
 H         -80.081169     -210.776138      -70.413200
 H         -78.251816     -212.263107      -69.121544
 H         -77.619453     -212.564835      -70.723015
