20
 generated by VMD
 C         -44.061363     -121.601784      -36.053692
 N         -43.725136     -120.553596      -35.602837
 H         -44.832054     -122.645447      -39.163166
 H         -44.091614     -122.480003      -36.615250
 C         -44.758331     -121.499420      -39.454285
 C         -43.336773     -120.947792      -39.736012
 C         -45.875629     -120.599808      -38.938583
 C         -43.406178     -119.426559      -40.193760
 C         -45.709740     -119.140640      -39.402763
 C         -44.298573     -118.555000      -39.374187
 H         -42.866489     -121.585144      -40.552311
 H         -42.685787     -121.161560      -38.792866
 H         -46.798401     -121.106819      -39.239841
 H         -45.922173     -120.488106      -37.867218
 H         -43.511333     -119.268089      -41.251896
 H         -42.512997     -118.973015      -39.993896
 H         -46.331078     -118.487595      -38.905022
 H         -45.995811     -119.044128      -40.406116
 H         -44.420033     -117.532982      -39.700775
 H         -43.830402     -118.347931      -38.373260
