20
 generated by VMD
 C         -41.595905     -102.351540      -34.205593
 N         -41.001015     -101.809166      -35.055271
 H         -39.476719     -104.269035      -32.619400
 H         -42.391605     -102.709610      -33.489285
 C         -38.551395     -104.159897      -32.195511
 C         -37.380791     -103.714859      -33.063580
 C         -38.178852     -105.006798      -30.915121
 C         -36.127235     -103.394394      -32.169830
 C         -36.776623     -104.693245      -30.221350
 C         -35.701778     -104.447464      -31.199781
 H         -37.723225     -102.931808      -33.725491
 H         -36.921318     -104.452614      -33.784199
 H         -38.905804     -104.821129      -30.186411
 H         -38.221951     -106.120140      -31.085691
 H         -36.336300     -102.425713      -31.580711
 H         -35.282280     -103.171410      -32.848255
 H         -36.533981     -105.516884      -29.588053
 H         -36.889679     -103.837585      -29.567038
 H         -34.786621     -104.226616      -30.646374
 H         -35.535770     -105.395691      -31.728153
