20
 generated by VMD
 C          -1.974918       -8.670795       -0.641824
 N          -2.013842       -8.019748        0.261108
 H          -3.235857       -9.386184        2.721620
 H          -1.956280      -10.515376        3.052358
 C          -3.052861      -10.420132        3.058928
 C          -3.580251      -11.446025        2.057382
 C          -3.355735      -10.660453        4.524495
 C          -3.390355      -12.901336        2.644000
 C          -3.100240      -12.089196        4.999952
 C          -3.891565      -13.008659        4.093257
 H          -3.176492      -11.205375        1.085538
 H          -4.670640      -11.312918        1.913196
 H          -2.678079       -9.992167        5.179849
 H          -4.434730      -10.399094        4.637200
 H          -2.329213      -13.181539        2.478578
 H          -4.008214      -13.530931        1.998656
 H          -3.383220      -12.108156        6.074721
 H          -2.009942      -12.260468        4.857667
 H          -3.691377      -14.035991        4.393104
 H          -4.954474      -12.795824        4.142196
