20
 generated by VMD
 C         -13.885197      -28.189108       -3.426175
 N         -14.043809      -27.250101       -4.019733
 H         -10.188073      -28.765659       -2.521055
 H         -10.227300      -27.515934       -3.701723
 C          -9.516962      -28.281075       -3.250149
 C          -9.077022      -29.255230       -4.351513
 C          -8.438893      -27.607109       -2.436831
 C          -7.854006      -28.780878       -5.167333
 C          -7.314416      -27.049101       -3.331573
 C          -6.782689      -28.121199       -4.242937
 H          -9.836162      -29.363445       -5.124083
 H          -8.813924      -30.222563       -3.795880
 H          -8.888966      -26.772638       -1.840467
 H          -8.048816      -28.345602       -1.713584
 H          -8.201636      -28.026453       -5.855240
 H          -7.435109      -29.656385       -5.650718
 H          -6.514342      -26.726414       -2.686326
 H          -7.679527      -26.204084       -4.012653
 H          -5.999523      -27.691744       -4.934134
 H          -6.263917      -28.935257       -3.750001
