20
 generated by VMD
 C         -56.241821     -149.491684      -46.042004
 N         -56.288231     -150.470566      -45.480282
 H         -53.638580     -147.851868      -47.780441
 H         -56.353928     -148.506882      -46.506855
 C         -53.958424     -147.420593      -48.715183
 C         -53.044189     -147.700378      -49.854305
 C         -54.618019     -146.132828      -48.554562
 C         -53.497227     -147.107147      -51.164040
 C         -55.400661     -145.709930      -49.848469
 C         -54.375061     -145.773712      -51.093224
 H         -53.022537     -148.859879      -49.916828
 H         -52.019871     -147.580719      -49.647457
 H         -55.376350     -146.109100      -47.663910
 H         -53.808224     -145.400940      -48.247379
 H         -54.251305     -147.767090      -51.644375
 H         -52.671303     -146.929306      -51.971478
 H         -55.698616     -144.658920      -49.671803
 H         -56.204044     -146.438843      -49.986053
 H         -54.906967     -145.610855      -52.016827
 H         -53.697174     -144.907913      -51.016315
