20
 generated by VMD
 C         -20.501421      -52.293861       -9.689462
 N         -21.144735      -51.718822      -10.461974
 H         -18.517336      -49.367039      -10.882967
 H         -19.391512      -52.728199       -9.108829
 C         -17.816322      -49.550846      -11.732412
 C         -17.322763      -50.898552      -12.062021
 C         -17.114563      -48.328625      -12.187022
 C         -16.764652      -51.049011      -13.448446
 C         -16.984728      -48.572231      -13.695101
 C         -16.085627      -49.784096      -13.955463
 H         -17.920689      -51.747391      -11.784737
 H         -16.437044      -51.034637      -11.388818
 H         -17.695898      -47.451000      -11.954284
 H         -16.143850      -48.282032      -11.740375
 H         -17.555031      -51.353825      -14.147629
 H         -16.101332      -51.888973      -13.391404
 H         -16.565624      -47.692379      -14.235285
 H         -17.951710      -48.704975      -14.014185
 H         -15.807842      -49.841152      -15.038503
 H         -15.157542      -49.617577      -13.334932
