20
 generated by VMD
 C         -23.399492      -53.211590      -13.092979
 N         -23.239742      -52.638100      -14.149682
 H         -20.373610      -54.896851      -14.250310
 H         -23.513351      -53.947788      -12.334785
 C         -19.413322      -54.760639      -14.048466
 C         -18.916542      -53.358524      -14.037977
 C         -18.627115      -56.002346      -13.981840
 C         -17.846182      -53.160191      -12.979004
 C         -17.204060      -55.704994      -13.457014
 C         -16.777597      -54.164825      -13.348440
 H         -19.707043      -52.588360      -13.912007
 H         -18.669760      -53.120403      -15.098178
 H         -19.089823      -56.640884      -13.293653
 H         -18.595919      -56.543453      -14.932710
 H         -18.268803      -53.362888      -11.977426
 H         -17.498009      -52.128391      -12.988914
 H         -16.447685      -56.186451      -14.017272
 H         -17.240444      -56.144604      -12.414586
 H         -15.980607      -54.166298      -12.540158
 H         -16.235235      -53.840267      -14.262906
