20
 generated by VMD
 C         -49.532986     -131.790955      -46.532455
 N         -50.184727     -132.503067      -47.208790
 H         -48.173424     -133.258942      -44.648975
 H         -49.122833     -131.318924      -45.630947
 C         -48.676868     -133.663116      -43.813702
 C         -49.256897     -135.054382      -44.000305
 C         -49.065704     -132.825577      -42.656891
 C         -49.552689     -135.787735      -42.687328
 C         -49.382881     -133.648407      -41.300083
 C         -50.277557     -134.837112      -41.731503
 H         -48.657150     -135.656448      -44.637585
 H         -50.205555     -134.900085      -44.513466
 H         -48.198696     -132.087769      -42.377914
 H         -49.899227     -132.137207      -43.027664
 H         -48.546368     -136.163254      -42.473595
 H         -50.193409     -136.633224      -42.997429
 H         -49.968243     -132.917328      -40.750340
 H         -48.526421     -134.039886      -40.752148
 H         -50.637955     -135.532059      -40.894016
 H         -51.231747     -134.607635      -42.067074
