20
 generated by VMD
 C          -0.999224      -10.339741        1.136323
 N          -1.784197       -9.722490        0.598731
 H          -3.359994      -12.196901        1.131468
 H          -4.339924      -12.231421        2.642143
 C          -4.001679      -12.835624        1.750910
 C          -3.191079      -13.981076        2.348291
 C          -5.222130      -13.321031        1.048026
 C          -4.014812      -14.787534        3.310111
 C          -6.052568      -14.144519        1.984069
 C          -5.333469      -15.295065        2.633723
 H          -2.228729      -13.585543        2.870746
 H          -2.906974      -14.643947        1.461990
 H          -5.719627      -12.451802        0.701264
 H          -4.948703      -13.780293        0.118403
 H          -4.464287      -14.229595        4.150797
 H          -3.565070      -15.714579        3.693789
 H          -6.950178      -14.484867        1.446665
 H          -6.373615      -13.458922        2.778731
 H          -5.972275      -15.708509        3.410012
 H          -5.126859      -16.065903        1.944561
