20
 generated by VMD
 C         -22.694445      -55.356106      -17.230305
 N         -23.063215      -54.500862      -17.931078
 H         -20.276583      -55.972172      -14.486206
 H         -21.970484      -55.867390      -16.672916
 C         -20.053354      -56.988258      -14.244499
 C         -20.678911      -57.600330      -13.037406
 C         -19.100729      -57.791019      -15.113526
 C         -21.006399      -59.085331      -13.238533
 C         -19.413176      -59.295586      -15.117051
 C         -19.662897      -59.759914      -13.674773
 H         -21.690435      -57.155792      -12.969076
 H         -20.086594      -57.451733      -12.148414
 H         -19.321323      -57.426846      -16.108149
 H         -18.054338      -57.699940      -14.938674
 H         -21.813223      -59.296772      -13.940487
 H         -21.339848      -59.361477      -12.270260
 H         -18.632521      -59.931129      -15.611540
 H         -20.344528      -59.337841      -15.670649
 H         -19.726402      -60.893368      -13.747737
 H         -18.805414      -59.484070      -13.043360
