20
 generated by VMD
 C         -37.877483     -107.973412      -37.198540
 N         -38.657017     -107.939934      -38.082020
 H         -40.957600     -108.653252      -35.320843
 H         -37.373058     -107.930565      -36.217838
 C         -41.189201     -109.406487      -34.691715
 C         -40.166836     -110.497238      -34.860710
 C         -42.430794     -109.707687      -33.916946
 C         -39.928364     -111.468994      -33.567078
 C         -42.234604     -110.618828      -32.651730
 C         -41.351971     -111.860878      -32.983028
 H         -39.149361     -110.170486      -35.251633
 H         -40.622185     -111.277351      -35.508446
 H         -42.917480     -108.732918      -33.717434
 H         -43.114868     -110.287590      -34.534988
 H         -39.279152     -111.039314      -32.830009
 H         -39.530735     -112.392403      -34.041405
 H         -43.358849     -110.835068      -32.336334
 H         -41.815350     -110.010666      -31.794643
 H         -41.262260     -112.520370      -32.119148
 H         -41.801476     -112.483063      -33.683846
