20
 generated by VMD
 C         -19.934582      -61.218956      -16.955839
 N         -19.619602      -60.600307      -16.060429
 H         -22.418686      -61.732372      -18.162056
 H         -20.113373      -61.851559      -17.923534
 C         -22.915482      -62.601986      -17.764690
 C         -24.058201      -63.216095      -18.526707
 C         -22.844063      -62.967121      -16.333538
 C         -24.339920      -64.671165      -18.052452
 C         -23.432699      -64.301323      -15.713433
 C         -24.716305      -64.643745      -16.602287
 H         -23.835022      -63.199039      -19.583324
 H         -24.859722      -62.596462      -18.292601
 H         -21.808174      -63.027191      -15.938920
 H         -23.362661      -62.130428      -15.904658
 H         -23.542130      -65.495377      -18.296476
 H         -25.207481      -65.035728      -18.637995
 H         -23.778374      -64.007568      -14.709573
 H         -22.724808      -65.131317      -15.740189
 H         -25.006575      -65.682602      -16.194424
 H         -25.619780      -64.080505      -16.326614
