20
 generated by VMD
 C          -2.540824       -8.671744       -0.129314
 N          -1.487203       -8.680147       -0.427670
 H          -3.078268       -9.792332        2.794922
 H          -1.865616      -10.849967        3.405757
 C          -2.921366      -10.757964        3.144156
 C          -3.207280      -11.787935        2.066116
 C          -3.812804      -10.951068        4.387362
 C          -3.256782      -13.263854        2.498869
 C          -3.896130      -12.456060        4.819619
 C          -4.299352      -13.374971        3.673910
 H          -2.506177      -11.633467        1.238149
 H          -4.161168      -11.494436        1.676252
 H          -3.652235      -10.251954        5.246066
 H          -4.845252      -10.756144        4.160001
 H          -2.257369      -13.636899        2.693641
 H          -3.594223      -13.708722        1.580907
 H          -4.745573      -12.554008        5.574253
 H          -2.941555      -12.750640        5.319307
 H          -4.371626      -14.447995        3.998406
 H          -5.322207      -13.197433        3.289237
