20
 generated by VMD
 C         -57.020596     -163.479782      -56.666965
 N         -57.217339     -162.564423      -57.289215
 H         -59.885891     -165.333115      -54.789768
 H         -56.770634     -164.331070      -56.106468
 C         -60.742165     -164.747894      -54.686493
 C         -61.470016     -165.031204      -53.345711
 C         -61.561325     -164.536606      -55.961311
 C         -62.808372     -164.174164      -53.237221
 C         -62.868942     -163.686386      -55.686218
 C         -63.651295     -164.353195      -54.497997
 H         -60.748718     -164.686707      -52.595551
 H         -61.755741     -166.053329      -53.353401
 H         -61.070644     -164.125214      -56.791573
 H         -61.850681     -165.574280      -56.299011
 H         -62.557560     -163.143021      -53.005745
 H         -63.333115     -164.427795      -52.340385
 H         -63.556549     -163.477310      -56.588215
 H         -62.477356     -162.727554      -55.283813
 H         -64.660400     -163.873322      -54.463844
 H         -63.835293     -165.515930      -54.771866
