20
 generated by VMD
 C         -28.254612      -73.801636      -18.319613
 N         -29.100565      -73.357979      -17.691076
 H         -25.570429      -71.996078      -18.768854
 H         -27.626539      -74.141342      -19.196396
 C         -25.417177      -71.987740      -19.827198
 C         -24.511494      -72.913170      -20.644295
 C         -25.853834      -70.678680      -20.448776
 C         -25.275808      -73.177063      -21.992819
 C         -26.264933      -70.786789      -21.927713
 C         -25.507830      -71.785072      -22.796560
 H         -24.256397      -73.929390      -20.189951
 H         -23.520321      -72.454529      -20.917564
 H         -26.733019      -70.240005      -19.943022
 H         -25.093878      -69.865051      -20.368082
 H         -26.245354      -73.607513      -21.642433
 H         -24.853798      -74.017021      -22.556479
 H         -26.213011      -69.860687      -22.508369
 H         -27.293644      -70.979912      -21.945602
 H         -26.202599      -71.973930      -23.638653
 H         -24.483301      -71.481133      -23.233664
