20
 generated by VMD
 C         -48.142872     -135.325562      -46.100128
 N         -47.485649     -134.991516      -47.051060
 H         -51.455296     -134.607803      -45.655632
 H         -48.737064     -135.551926      -45.189713
 C         -51.276409     -135.495682      -44.933285
 C         -51.928226     -136.830963      -45.447327
 C         -51.292042     -135.407761      -43.498474
 C         -51.392998     -138.085678      -44.741879
 C         -50.700157     -136.655731      -42.709618
 C         -51.399212     -137.991226      -43.234173
 H         -51.813328     -137.019257      -46.495689
 H         -53.014881     -136.845062      -45.277390
 H         -50.641766     -134.544357      -43.264992
 H         -52.219940     -135.248886      -43.073666
 H         -50.375393     -138.267685      -45.162251
 H         -52.045063     -139.014771      -45.024414
 H         -50.830437     -136.458832      -41.591228
 H         -49.567482     -136.635071      -42.914749
 H         -51.013760     -138.881866      -42.851318
 H         -52.491714     -138.219208      -42.823532
