20
 generated by VMD
 C         -21.650732      -55.814037      -17.573278
 N         -20.660608      -55.379528      -18.016901
 H         -23.227623      -58.556679      -15.241633
 H         -22.485121      -56.530609      -17.398115
 C         -22.314764      -59.032604      -15.018262
 C         -21.635170      -58.922855      -13.628784
 C         -21.700779      -59.847141      -16.056847
 C         -20.936155      -60.148754      -13.175348
 C         -20.263317      -60.378605      -15.665247
 C         -20.320015      -61.099316      -14.346045
 H         -22.460930      -58.639675      -12.958006
 H         -20.853197      -58.212311      -13.648234
 H         -22.309301      -60.702919      -16.382042
 H         -21.565540      -59.235497      -16.946745
 H         -21.782873      -60.726868      -12.670746
 H         -20.177116      -59.892811      -12.402601
 H         -19.494583      -59.577877      -15.577399
 H         -19.988571      -61.073940      -16.457029
 H         -20.877270      -62.053432      -14.420722
 H         -19.344120      -61.392616      -14.019476
