20
 generated by VMD
 C         -60.913067     -156.039581      -54.403179
 N         -60.763718     -156.185989      -55.534256
 H         -59.276726     -156.184372      -50.954327
 H         -60.941376     -155.734467      -53.338512
 C         -58.348816     -155.805603      -51.346004
 C         -57.494259     -154.764572      -50.654907
 C         -57.682232     -156.592896      -52.411674
 C         -56.261623     -155.271973      -50.007687
 C         -56.489666     -157.205505      -51.691944
 C         -55.536774     -156.202393      -51.016441
 H         -58.040977     -154.279541      -49.851700
 H         -57.310890     -153.969406      -51.488956
 H         -58.183006     -157.431381      -52.735447
 H         -57.503742     -156.017914      -53.277435
 H         -56.515144     -155.964615      -49.242821
 H         -55.759018     -154.466858      -49.530445
 H         -55.922256     -157.721588      -52.455437
 H         -56.763100     -157.950714      -50.883198
 H         -54.758675     -156.728699      -50.523689
 H         -55.104313     -155.625748      -51.904774
