20
 generated by VMD
 C         -49.730671     -133.124756      -46.767128
 N         -48.734726     -132.544327      -47.187885
 H         -48.298508     -134.253052      -44.552940
 H         -50.270626     -133.964890      -46.362755
 C         -49.012814     -134.771255      -43.898838
 C         -49.391102     -136.198761      -44.239017
 C         -49.962002     -133.850891      -43.246918
 C         -50.041492     -136.863907      -43.017548
 C         -50.724983     -134.547501      -42.053635
 C         -51.233154     -135.957336      -42.423279
 H         -48.343975     -136.619339      -44.443535
 H         -49.909225     -136.244568      -45.196774
 H         -49.453644     -132.878494      -42.891369
 H         -50.604214     -133.603653      -44.070988
 H         -49.406052     -137.262741      -42.201786
 H         -50.477772     -137.859192      -43.387653
 H         -51.558071     -133.971268      -41.761574
 H         -50.163483     -134.629562      -41.142113
 H         -51.511513     -136.516891      -41.375809
 H         -52.036278     -135.816376      -43.159813
