20
 generated by VMD
 C         -68.498222     -188.497208      -67.152603
 N         -68.409973     -187.577560      -67.833389
 H         -68.277565     -187.157990      -63.998558
 H         -68.577202     -189.347260      -66.503227
 C         -69.181221     -187.464096      -63.514080
 C         -69.234077     -188.577972      -62.477692
 C         -70.478065     -186.580307      -63.610699
 C         -70.545883     -189.351166      -62.663834
 C         -71.675758     -187.497726      -63.794003
 C         -71.813530     -188.499329      -62.750664
 H         -69.232544     -188.316879      -61.488312
 H         -68.393005     -189.174103      -62.688156
 H         -70.586098     -185.989395      -62.696934
 H         -70.358109     -185.677155      -64.359970
 H         -70.612053     -189.981903      -61.760357
 H         -70.443924     -189.958206      -63.575069
 H         -71.649063     -188.050812      -64.686852
 H         -72.576790     -186.933502      -63.865456
 H         -71.928444     -188.085480      -61.674995
 H         -72.615616     -189.119370      -63.078156
