20
 generated by VMD
 C         -54.854477     -148.418365      -45.189503
 N         -54.516171     -148.613251      -44.096733
 H         -54.753040     -148.109634      -48.914612
 H         -55.242157     -148.154037      -46.129375
 C         -54.437763     -147.137817      -49.290588
 C         -53.193783     -146.826828      -50.104847
 C         -55.017624     -146.018509      -48.544220
 C         -53.300407     -145.565659      -50.832966
 C         -55.133633     -144.650131      -49.470039
 C         -53.825794     -144.347900      -50.149300
 H         -52.936314     -147.521805      -50.848827
 H         -52.332840     -146.973343      -49.401295
 H         -55.892162     -146.204086      -48.054134
 H         -54.280418     -145.757339      -47.799385
 H         -54.000675     -145.695526      -51.653805
 H         -52.379074     -145.258698      -51.199120
 H         -55.283035     -143.820679      -48.693863
 H         -55.916607     -144.696701      -50.092342
 H         -54.067616     -143.511597      -50.845005
 H         -53.067169     -144.299393      -49.373875
