20
 generated by VMD
 C         -18.276535      -49.147537       -7.894389
 N         -19.166533      -49.828396       -8.009619
 H         -16.302822      -47.353935      -10.019542
 H         -16.775787      -48.938740      -10.673817
 C         -16.491129      -47.871799      -10.973314
 C         -15.226918      -47.900082      -11.855181
 C         -17.743690      -47.187351      -11.581574
 C         -15.599900      -48.323208      -13.335563
 C         -17.983274      -47.677490      -13.007694
 C         -16.784451      -47.599697      -13.883304
 H         -14.586050      -48.758026      -11.580724
 H         -14.742260      -46.923809      -11.739565
 H         -18.591305      -47.434525      -10.938160
 H         -17.530149      -46.125637      -11.645234
 H         -15.801556      -49.418518      -13.359364
 H         -14.730955      -48.043198      -13.957449
 H         -18.822001      -47.170383      -13.422206
 H         -18.279602      -48.751495      -12.965454
 H         -17.055700      -48.066227      -14.886618
 H         -16.570185      -46.493313      -14.120787
