20
 generated by VMD
 C         -31.699797      -78.796021      -26.444937
 N         -31.075138      -77.996292      -27.005285
 H         -28.751802      -80.972900      -25.223412
 H         -32.433044      -79.387871      -25.849642
 C         -28.889999      -80.972038      -24.091982
 C         -27.635574      -80.816750      -23.275637
 C         -29.996483      -81.944275      -23.677662
 C         -27.748505      -81.156349      -21.704359
 C         -30.139915      -82.207466      -22.157833
 C         -28.704149      -82.294968      -21.519838
 H         -26.940153      -79.964989      -23.433750
 H         -27.004969      -81.599525      -23.625481
 H         -30.949131      -81.559586      -24.224323
 H         -29.787209      -82.931564      -24.145063
 H         -28.212290      -80.297874      -21.213285
 H         -26.758390      -81.366753      -21.295219
 H         -30.742926      -83.209160      -22.075197
 H         -30.628033      -81.440430      -21.525738
 H         -28.910633      -82.300308      -20.457937
 H         -28.177404      -83.211128      -21.924843
