20
 generated by VMD
 C         -19.085581      -63.186584      -16.883564
 N         -20.188292      -62.865803      -16.989588
 H         -22.778215      -63.742535      -17.005348
 H         -18.081467      -63.386238      -17.019253
 C         -23.703196      -64.313400      -17.315144
 C         -24.300554      -64.091820      -18.697432
 C         -24.529024      -65.119865      -16.308020
 C         -24.585560      -65.500023      -19.355083
 C         -24.942375      -66.383537      -16.997248
 C         -25.574720      -66.229324      -18.434155
 H         -23.563313      -63.564140      -19.315866
 H         -25.251980      -63.549881      -18.606426
 H         -23.933805      -65.321236      -15.436557
 H         -25.471443      -64.545731      -15.980296
 H         -23.688597      -66.092087      -19.599834
 H         -25.080473      -65.270187      -20.346054
 H         -25.738340      -66.890541      -16.481661
 H         -24.081835      -67.067123      -17.057076
 H         -26.127653      -67.145027      -18.727541
 H         -26.418945      -65.520180      -18.222332
