20
 generated by VMD
 C         -74.293762     -200.306488      -66.382828
 N         -73.334305     -200.921890      -66.324722
 H         -76.514687     -198.189774      -68.685463
 H         -75.188171     -199.674774      -66.276123
 C         -75.420815     -198.149384      -68.692169
 C         -74.820496     -197.300064      -67.574753
 C         -74.509865     -199.016388      -69.462379
 C         -73.706207     -196.587189      -68.134895
 C         -73.144569     -198.388855      -69.840569
 C         -72.602310     -197.512222      -68.763306
 H         -74.391937     -197.760696      -66.548653
 H         -75.554550     -196.604080      -67.274155
 H         -74.354355     -199.954727      -68.992622
 H         -75.036507     -199.210266      -70.319542
 H         -73.138893     -196.103546      -67.335350
 H         -73.955696     -195.893219      -68.892342
 H         -73.263031     -197.838043      -70.786987
 H         -72.389114     -199.136887      -70.160759
 H         -72.076851     -198.048523      -67.937469
 H         -71.794258     -196.899475      -69.273201
