20
 generated by VMD
 C         -68.862038     -188.583847      -66.970909
 N         -68.201195     -189.458176      -66.633575
 H         -68.417252     -187.419678      -63.319111
 H         -69.429054     -187.686035      -67.196976
 C         -69.390877     -187.914383      -63.287128
 C         -69.589485     -189.429825      -63.441948
 C         -70.516304     -186.910110      -62.970505
 C         -70.871765     -189.621368      -64.303543
 C         -71.751945     -187.244949      -63.684151
 C         -72.013687     -188.778320      -63.805641
 H         -69.841034     -189.764893      -62.453606
 H         -68.749718     -189.983154      -63.781982
 H         -70.746910     -186.900177      -61.917229
 H         -70.228775     -185.902252      -63.106041
 H         -71.172844     -190.653763      -64.332718
 H         -70.645439     -189.296982      -65.326416
 H         -71.846657     -186.872879      -64.734848
 H         -72.578857     -186.663605      -63.255920
 H         -72.465126     -189.032974      -62.827999
 H         -72.788338     -188.945572      -64.444038
