20
 generated by VMD
 C         -27.967171      -72.595825      -17.963972
 N         -28.112301      -73.569756      -17.390669
 H         -24.993145      -71.269661      -18.669353
 H         -27.499605      -71.680946      -18.520350
 C         -25.126137      -71.275177      -19.745781
 C         -24.349573      -72.230438      -20.550159
 C         -25.843441      -70.170944      -20.365082
 C         -25.206247      -72.692818      -21.716314
 C         -26.339813      -70.465607      -21.862373
 C         -25.739187      -71.569603      -22.584513
 H         -24.183847      -73.094810      -20.001328
 H         -23.458410      -71.872871      -20.922741
 H         -26.816277      -69.938065      -19.845718
 H         -25.219568      -69.293877      -20.443542
 H         -25.973560      -73.319824      -21.234907
 H         -24.465008      -73.254318      -22.299593
 H         -26.334433      -69.643509      -22.562208
 H         -27.393261      -70.607010      -21.752045
 H         -26.464281      -71.923714      -23.321583
 H         -24.854481      -71.227165      -23.159994
