20
 generated by VMD
 C         -70.105927     -182.901901      -65.952942
 N         -71.112289     -183.325195      -65.648094
 H         -67.779404     -182.733032      -63.111908
 H         -69.157013     -182.479385      -66.219017
 C         -67.532356     -182.413422      -62.103546
 C         -67.676018     -183.371796      -61.013390
 C         -66.996811     -181.052246      -61.880054
 C         -66.655342     -183.063248      -59.894344
 C         -66.195702     -180.752930      -60.615509
 C         -66.725601     -181.618225      -59.489208
 H         -67.377258     -184.361420      -61.442410
 H         -68.597099     -183.300446      -60.503166
 H         -66.361389     -180.665909      -62.714687
 H         -67.901337     -180.589554      -61.814552
 H         -65.588776     -183.362213      -60.223301
 H         -66.819962     -183.815491      -59.095238
 H         -66.260849     -179.710159      -60.322807
 H         -65.111366     -180.993347      -60.737537
 H         -65.999199     -181.583252      -58.664616
 H         -67.728935     -181.470978      -59.176544
