20
 generated by VMD
 C         -40.578510     -104.222862      -36.523956
 N         -39.717815     -105.021210      -36.588017
 H         -39.992245     -107.314461      -35.029766
 H         -41.487160     -103.575378      -36.530224
 C         -39.769901     -107.478714      -33.981171
 C         -38.607925     -106.792732      -33.406933
 C         -40.084797     -108.841011      -33.560085
 C         -38.561607     -106.942566      -31.838446
 C         -39.693733     -109.046036      -31.962069
 C         -38.417980     -108.467140      -31.502632
 H         -38.717762     -105.788025      -33.660095
 H         -37.630493     -106.994720      -33.842896
 H         -41.126862     -109.038246      -33.723339
 H         -39.512749     -109.656952      -34.102806
 H         -39.501839     -106.522385      -31.447098
 H         -37.697178     -106.452370      -31.455900
 H         -39.733719     -110.072006      -31.623127
 H         -40.523441     -108.601624      -31.433849
 H         -38.370995     -108.734718      -30.530132
 H         -37.604305     -109.030762      -32.055904
