20
 generated by VMD
 C         -49.208096     -126.937263      -39.859154
 N         -50.113503     -127.208946      -39.205616
 H         -46.861382     -126.957832      -42.524406
 H         -48.447582     -126.738632      -40.589100
 C         -46.211422     -126.426750      -41.911465
 C         -45.308922     -126.892662      -40.816265
 C         -46.701626     -124.979218      -41.808228
 C         -44.171734     -125.818390      -40.417103
 C         -45.574097     -124.015305      -41.423470
 C         -44.828384     -124.415657      -40.204689
 H         -44.846931     -127.859886      -41.104218
 H         -45.931477     -127.127769      -39.835571
 H         -47.200470     -124.681007      -42.792126
 H         -47.458809     -124.955620      -41.107517
 H         -43.331097     -125.817871      -41.101460
 H         -43.835865     -126.022469      -39.412708
 H         -45.968830     -122.985413      -41.278576
 H         -44.953938     -123.789658      -42.304989
 H         -43.967518     -123.703918      -39.947678
 H         -45.446297     -124.451012      -39.294392
