20
 generated by VMD
 C         -30.295944      -75.006775      -21.055275
 N         -31.337713      -75.386429      -20.760241
 H         -27.429230      -74.855293      -19.569115
 H         -29.268709      -74.459686      -21.257835
 C         -26.916981      -74.637047      -20.471390
 C         -26.611725      -75.860001      -21.318623
 C         -26.016148      -73.488747      -20.412851
 C         -26.043739      -75.461121      -22.670046
 C         -25.423607      -73.184303      -21.825022
 C         -24.902615      -74.401642      -22.522238
 H         -27.550100      -76.460243      -21.435112
 H         -26.067806      -76.649673      -20.934433
 H         -26.640678      -72.696953      -20.133879
 H         -25.147116      -73.617401      -19.719933
 H         -26.925482      -75.138084      -23.252489
 H         -25.621847      -76.341110      -23.154613
 H         -24.602135      -72.584129      -21.514656
 H         -26.140734      -72.600677      -22.424845
 H         -24.527695      -74.049736      -23.476068
 H         -24.105389      -74.897720      -21.932213
