20
 generated by VMD
 C         -46.461578     -124.391930      -36.074028
 N         -46.963726     -125.327263      -35.589985
 H         -44.399235     -121.734886      -38.002831
 H         -45.946419     -123.590118      -36.672066
 C         -44.473087     -121.394745      -39.003540
 C         -43.278816     -121.642059      -39.867954
 C         -45.721840     -120.825905      -39.583069
 C         -43.530121     -121.901672      -41.297363
 C         -45.919861     -121.167206      -41.090874
 C         -44.628464     -120.874008      -41.848492
 H         -42.577248     -122.381714      -39.429928
 H         -42.645061     -120.737541      -39.636047
 H         -46.568657     -121.401024      -39.103733
 H         -45.759895     -119.790543      -39.366119
 H         -43.948719     -122.974899      -41.488495
 H         -42.588844     -121.725464      -41.801067
 H         -46.793365     -120.581390      -41.418575
 H         -46.302223     -122.273453      -41.097122
 H         -44.788990     -121.049637      -42.918236
 H         -44.322601     -119.793449      -41.599617
