20
 generated by VMD
 C         -69.043999     -180.694199      -62.561665
 N         -70.058250     -180.356766      -62.113026
 H         -66.824211     -181.041122      -59.291584
 H         -68.063911     -181.060364      -62.875866
 C         -66.355293     -180.186874      -59.879196
 C         -65.177643     -180.315033      -60.712204
 C         -66.936905     -178.896667      -59.457272
 C         -64.830627     -178.997498      -61.575378
 C         -66.467857     -177.594879      -60.218052
 C         -65.092033     -177.639450      -60.834942
 H         -65.459229     -181.152878      -61.450851
 H         -64.209702     -180.562943      -60.089924
 H         -68.071060     -178.908585      -59.437336
 H         -66.623672     -178.919449      -58.448406
 H         -65.546661     -179.056885      -62.489719
 H         -63.840225     -179.169479      -62.090206
 H         -66.420753     -176.851913      -59.438156
 H         -67.207466     -177.393600      -61.023354
 H         -64.689537     -176.868088      -61.429394
 H         -64.327843     -177.931335      -60.063656
