20
 generated by VMD
 C         -23.438898      -68.684891      -16.611624
 N         -23.202974      -69.448204      -15.778400
 H         -23.916824      -66.356491      -18.731628
 H         -23.552835      -67.793648      -17.348274
 C         -24.492086      -67.050316      -19.273390
 C         -23.856771      -67.702034      -20.544270
 C         -25.968544      -67.074089      -19.149561
 C         -24.482195      -69.074844      -20.754946
 C         -26.430328      -68.506653      -19.155661
 C         -26.014725      -69.096565      -20.443975
 H         -22.662834      -67.861351      -20.403631
 H         -24.000158      -67.115837      -21.442186
 H         -26.349157      -66.493103      -18.342003
 H         -26.394220      -66.387489      -19.842911
 H         -24.004280      -69.775162      -20.082691
 H         -24.357176      -69.484131      -21.702616
 H         -27.524366      -68.507500      -19.139553
 H         -26.303713      -69.078781      -18.255245
 H         -26.485405      -70.088509      -20.336817
 H         -26.572218      -68.490936      -21.238283
