20
 generated by VMD
 C         -79.444527     -205.450668      -70.923836
 N         -80.585587     -205.704895      -71.169403
 H         -77.260292     -203.091156      -69.708015
 H         -78.463432     -205.230713      -70.645760
 C         -76.225586     -203.234772      -69.969070
 C         -75.351463     -201.993256      -70.225250
 C         -75.495804     -204.413574      -69.623512
 C         -73.795349     -202.197403      -70.411301
 C         -74.072075     -204.128998      -68.994637
 C         -73.151329     -203.480820      -70.052780
 H         -75.457779     -201.326874      -69.313736
 H         -75.852180     -201.521683      -71.038422
 H         -76.043884     -205.082687      -68.988785
 H         -75.560135     -205.080566      -70.500145
 H         -73.194550     -201.355759      -70.031372
 H         -73.661469     -202.179718      -71.469658
 H         -73.646004     -205.026230      -68.539207
 H         -74.229050     -203.411469      -68.140076
 H         -72.151985     -203.297333      -69.795067
 H         -73.064186     -204.091354      -70.941895
