20
 generated by VMD
 C         -19.896696      -59.992813      -17.672895
 N         -19.523170      -58.961094      -18.104538
 H         -22.830736      -59.739864      -16.072702
 H         -20.377043      -61.020744      -17.454901
 C         -23.036266      -60.780617      -15.960650
 C         -23.157297      -61.568127      -17.244432
 C         -23.193018      -61.502319      -14.652867
 C         -22.883467      -63.058334      -17.310497
 C         -22.643555      -62.954128      -14.691867
 C         -23.220137      -63.688168      -15.995128
 H         -22.394306      -61.152634      -17.849730
 H         -24.144712      -61.446621      -17.639606
 H         -22.462032      -60.856361      -14.086007
 H         -24.227430      -61.574883      -14.350677
 H         -21.902271      -63.316093      -17.680418
 H         -23.496098      -63.466183      -18.163553
 H         -22.974215      -63.544170      -13.781730
 H         -21.548849      -62.945328      -14.831169
 H         -22.887964      -64.761551      -15.848778
 H         -24.325771      -63.684383      -15.886876
