20
 generated by VMD
 C         -68.185745     -188.434097      -66.781952
 N         -68.710274     -188.031982      -67.724586
 H         -68.228516     -186.925003      -63.354427
 H         -67.731041     -188.921860      -65.987602
 C         -69.165947     -187.484894      -63.507912
 C         -69.363419     -188.775909      -62.806656
 C         -70.417854     -186.645721      -63.645824
 C         -70.656342     -189.463806      -63.086918
 C         -71.773933     -187.380249      -63.749294
 C         -71.851135     -188.659805      -62.795425
 H         -69.517136     -188.733963      -61.729961
 H         -68.470299     -189.366074      -62.980949
 H         -70.465126     -185.914322      -62.792530
 H         -70.255600     -185.931885      -64.484070
 H         -70.676544     -190.418991      -62.524136
 H         -70.706413     -189.671921      -64.129524
 H         -72.008438     -187.753708      -64.769508
 H         -72.591393     -186.629395      -63.671860
 H         -71.960167     -188.482193      -61.660999
 H         -72.799011     -189.309097      -63.092827
