20
 generated by VMD
 C         -48.392361     -135.714966      -46.380260
 N         -47.509495     -135.791656      -45.695389
 H         -52.054150     -134.957352      -45.878994
 H         -49.437416     -135.587646      -46.669495
 C         -51.768494     -135.701630      -45.227585
 C         -52.408379     -137.021652      -45.518921
 C         -51.290234     -135.592331      -43.734703
 C         -51.541214     -138.250641      -45.070507
 C         -50.471134     -136.827637      -43.340698
 C         -51.110470     -138.157410      -43.561741
 H         -52.740982     -137.007706      -46.534691
 H         -53.357815     -137.025208      -44.890598
 H         -50.664940     -134.703110      -43.811058
 H         -52.094528     -135.425858      -43.067703
 H         -50.604588     -138.276428      -45.626526
 H         -52.094166     -139.198502      -45.102730
 H         -50.310650     -136.716049      -42.281311
 H         -49.468651     -136.850388      -43.807896
 H         -50.465172     -138.908234      -43.223698
 H         -51.952278     -138.390320      -42.909454
