20
 generated by VMD
 C         -13.500339      -43.242413       -6.390412
 N         -12.921739      -42.649738       -7.129909
 H         -14.709435      -44.497597       -8.506090
 H         -14.342553      -43.044331       -9.526546
 C         -15.050137      -43.926395       -9.348133
 C         -16.409405      -43.348095       -9.188112
 C         -15.085579      -44.758476      -10.656108
 C         -17.064583      -42.624577      -10.350755
 C         -15.624519      -43.942390      -11.840281
 C         -17.045771      -43.487236      -11.570570
 H         -16.349422      -42.572605       -8.381041
 H         -17.095646      -44.112579       -8.733570
 H         -14.032681      -45.136093      -10.775461
 H         -15.670877      -45.693615      -10.523552
 H         -16.482433      -41.717323      -10.565746
 H         -18.047464      -42.263988      -10.071939
 H         -15.619899      -44.637566      -12.649016
 H         -15.078478      -42.973045      -12.100223
 H         -17.466656      -42.966530      -12.409516
 H         -17.630760      -44.397694      -11.349189
