20
 generated by VMD
 C         -29.473042      -74.655502      -19.621052
 N         -30.493084      -74.455376      -20.163752
 H         -25.867249      -73.509987      -18.868944
 H         -28.478935      -75.113564      -19.265610
 C         -25.673006      -73.370018      -19.956833
 C         -25.343119      -74.647179      -20.702803
 C         -25.438684      -72.040466      -20.524462
 C         -25.970181      -74.563469      -22.081982
 C         -26.046648      -71.968544      -21.892973
 C         -25.775999      -73.133560      -22.753223
 H         -25.657509      -75.437546      -20.183228
 H         -24.252087      -74.799736      -20.809000
 H         -25.919239      -71.160294      -20.043468
 H         -24.393007      -71.809235      -20.461550
 H         -27.041807      -74.866760      -22.099543
 H         -25.536875      -75.318169      -22.742092
 H         -25.563694      -71.044907      -22.273394
 H         -27.176003      -71.551125      -21.829229
 H         -26.258177      -72.971352      -23.703648
 H         -24.741358      -73.145187      -22.979685
