20
 generated by VMD
 C         -20.377075      -61.825527      -17.544815
 N         -19.576786      -61.412727      -16.849464
 H         -21.857868      -65.348900      -16.657629
 H         -21.151985      -61.961521      -18.290478
 C         -22.813976      -65.023918      -17.018993
 C         -23.092487      -64.323112      -18.212385
 C         -23.926786      -65.293640      -15.970964
 C         -24.441460      -64.709373      -18.860811
 C         -25.249460      -65.608711      -16.752968
 C         -25.585192      -64.695663      -17.927418
 H         -22.348284      -64.643105      -19.002150
 H         -23.107731      -63.133476      -18.092646
 H         -23.504755      -66.154922      -15.451759
 H         -24.020468      -64.398041      -15.271922
 H         -24.406528      -65.716980      -19.343033
 H         -24.603468      -64.081421      -19.790150
 H         -26.112270      -65.716812      -16.166126
 H         -25.115013      -66.634521      -17.114954
 H         -26.521564      -64.874306      -18.412699
 H         -25.784464      -63.634697      -17.568388
