20
 generated by VMD
 C         -79.540276     -206.484116      -75.097198
 N         -79.832733     -206.295380      -73.985840
 H         -78.654472     -206.737396      -71.319885
 H         -79.420357     -206.612564      -76.161499
 C         -77.696655     -206.750992      -70.760605
 C         -76.569130     -205.851135      -71.219757
 C         -77.347717     -207.979141      -70.041016
 C         -75.264931     -205.928833      -70.401825
 C         -76.040001     -207.891312      -69.144829
 C         -74.834518     -207.222794      -69.799194
 H         -76.921593     -204.785477      -71.542755
 H         -76.048080     -206.221191      -72.125137
 H         -78.191414     -208.385010      -69.523422
 H         -77.097084     -208.751038      -70.809593
 H         -75.364166     -205.187759      -69.594414
 H         -74.399330     -205.686722      -71.089684
 H         -75.669304     -208.905457      -68.846191
 H         -76.290070     -207.273346      -68.291077
 H         -74.055923     -207.095840      -68.994797
 H         -74.459717     -207.756012      -70.713135
