20
 generated by VMD
 C         -12.077361      -25.401579       -0.561246
 N         -12.836218      -25.840574        0.133335
 H          -8.825511      -26.816029       -2.028882
 H          -9.403187      -25.924627       -3.376242
 C          -8.432772      -26.232038       -2.850046
 C          -7.474821      -27.075918       -3.734509
 C          -7.846324      -24.900845       -2.391377
 C          -6.927509      -26.106398       -4.969320
 C          -7.286842      -24.031870       -3.515720
 C          -6.286047      -24.805569       -4.441078
 H          -7.999348      -27.852201       -4.306458
 H          -6.544542      -27.486052       -3.136198
 H          -8.707725      -24.359566       -1.897298
 H          -7.073846      -25.101313       -1.673144
 H          -7.825339      -25.875568       -5.610455
 H          -6.203836      -26.731373       -5.530277
 H          -6.739042      -23.185146       -3.111796
 H          -8.056252      -23.558744       -4.135080
 H          -6.096035      -24.192890       -5.330116
 H          -5.365852      -24.960669       -3.920289
