20
 generated by VMD
 C          -4.166089      -20.770176        2.999116
 N          -4.699706      -19.801487        2.831699
 H          -5.081789      -18.927221       -0.339066
 H          -5.728309      -20.567913       -0.424841
 C          -5.866595      -19.554338       -0.822985
 C          -5.681578      -19.677448       -2.326855
 C          -7.275261      -19.029150       -0.481459
 C          -6.817108      -20.441893       -3.023969
 C          -8.409740      -19.741756       -1.249238
 C          -8.160938      -19.757454       -2.802507
 H          -4.748086      -20.322342       -2.556283
 H          -5.558437      -18.739700       -2.838768
 H          -7.424986      -19.193659        0.575803
 H          -7.282411      -17.972584       -0.604939
 H          -6.898739      -21.472696       -2.680539
 H          -6.545757      -20.416733       -4.065564
 H          -9.426137      -19.333288       -1.066718
 H          -8.479888      -20.794567       -0.934587
 H          -8.957844      -20.246033       -3.404263
 H          -8.136619      -18.673653       -2.997824
