20
 generated by VMD
 C         -59.739922     -157.362839      -56.772999
 N         -60.780239     -157.081589      -57.062374
 H         -59.822598     -157.238602      -53.274220
 H         -58.772076     -157.715561      -56.569263
 C         -59.173542     -157.848495      -52.638420
 C         -57.962547     -157.307251      -51.912636
 C         -59.462402     -159.310669      -52.589554
 C         -57.397411     -158.121765      -50.713394
 C         -58.737816     -160.095367      -51.397900
 C         -57.271938     -159.689667      -51.119999
 H         -58.151150     -156.180527      -51.675198
 H         -57.183571     -157.310074      -52.684654
 H         -60.512486     -159.468842      -52.384007
 H         -59.234966     -159.636276      -53.588531
 H         -57.957798     -157.941635      -49.809853
 H         -56.319614     -157.803131      -50.419968
 H         -58.629261     -161.126709      -51.855995
 H         -59.459679     -160.149399      -50.549995
 H         -56.808189     -160.346832      -50.452133
 H         -56.814610     -159.772354      -52.171734
