20
 generated by VMD
 C         -58.435963     -160.308563      -56.953381
 N         -58.639816     -159.856873      -57.966248
 H         -58.857433     -163.339966      -54.914204
 H         -58.271423     -160.736618      -55.972542
 C         -59.659184     -163.183990      -54.226585
 C         -59.438778     -163.161438      -52.802010
 C         -61.121944     -163.347717      -54.597626
 C         -60.369026     -162.266312      -52.154556
 C         -61.889370     -162.207932      -54.137360
 C         -61.827560     -162.202316      -52.627666
 H         -58.484821     -162.685287      -52.583260
 H         -59.663242     -164.215134      -52.388130
 H         -61.242031     -163.480957      -55.644146
 H         -61.558792     -164.196457      -54.091717
 H         -59.993416     -161.124954      -52.194798
 H         -60.313751     -162.452332      -51.089096
 H         -62.892494     -162.331650      -54.615650
 H         -61.611423     -161.121628      -54.320023
 H         -62.299515     -161.281921      -52.322231
 H         -62.457706     -163.110489      -52.319996
