20
 generated by VMD
 C         -76.885651     -203.386856      -66.739670
 N         -77.645012     -203.979675      -66.115234
 H         -75.476067     -200.683929      -68.293045
 H         -76.202225     -202.814301      -67.280075
 C         -74.703377     -200.068329      -68.812469
 C         -74.778961     -198.552917      -68.674400
 C         -73.830338     -200.683395      -69.854881
 C         -73.513008     -197.804672      -69.015533
 C         -72.995224     -199.640366      -70.772949
 C         -72.860756     -198.101501      -70.320786
 H         -75.376595     -198.226562      -67.673744
 H         -75.442924     -198.279572      -69.512077
 H         -73.239578     -201.255310      -69.146843
 H         -74.411621     -201.359528      -70.523483
 H         -72.731979     -197.868607      -68.273796
 H         -73.788025     -196.719284      -68.926613
 H         -73.407784     -199.674545      -71.821724
 H         -71.882370     -199.986008      -70.719788
 H         -71.758652     -197.928406      -70.400635
 H         -73.247818     -197.552414      -71.079338
