20
 generated by VMD
 C         -51.158413     -130.780396      -46.287434
 N         -50.371410     -130.328247      -46.983696
 H         -48.211720     -132.130112      -44.429279
 H         -51.980152     -131.114075      -45.653439
 C         -48.031963     -132.395416      -43.410732
 C         -48.635624     -133.657455      -42.988403
 C         -48.114101     -131.298111      -42.415245
 C         -48.258568     -134.119370      -41.513943
 C         -47.873672     -131.699509      -40.953365
 C         -48.667107     -132.962448      -40.572933
 H         -48.262585     -134.415192      -43.777615
 H         -49.684959     -133.658279      -43.161831
 H         -47.472450     -130.446381      -42.663300
 H         -49.040897     -130.771027      -42.332462
 H         -47.186508     -134.355698      -41.423592
 H         -48.805508     -135.059738      -41.231323
 H         -48.220486     -130.973251      -40.294937
 H         -46.801083     -131.868301      -40.840546
 H         -48.491993     -133.266388      -39.573524
 H         -49.750710     -132.910690      -40.643894
