20
 generated by VMD
 C         -10.555901      -37.554081       -8.063294
 N         -10.836652      -36.693588       -7.369295
 H         -12.720320      -39.350113       -8.022232
 H         -13.983073      -39.312263       -6.964894
 C         -13.723592      -39.716751       -7.892603
 C         -13.785816      -41.284363       -7.815263
 C         -14.653535      -39.184128       -9.026628
 C         -15.219093      -41.836353       -7.626841
 C         -16.096102      -39.766663       -8.860195
 C         -16.139830      -41.298664       -8.760445
 H         -13.103051      -41.580143       -7.037440
 H         -13.361162      -41.674984       -8.725513
 H         -14.655087      -38.077332       -9.023412
 H         -14.255384      -39.493328      -10.023313
 H         -15.674761      -41.528534       -6.698241
 H         -15.181898      -42.957394       -7.618403
 H         -16.644405      -39.505653       -9.721725
 H         -16.640341      -39.346199       -7.942333
 H         -17.169794      -41.616024       -8.701856
 H         -15.732833      -41.612431       -9.717770
