20
 generated by VMD
 C         -78.435402     -209.768097      -77.339890
 N         -79.055901     -208.964554      -76.734467
 H         -78.107079     -210.409576      -73.589699
 H         -77.893417     -210.617584      -77.817741
 C         -78.535042     -211.097137      -72.840309
 C         -77.531387     -211.617691      -71.897552
 C         -79.682442     -212.026627      -72.946693
 C         -78.186073     -211.950027      -70.536713
 C         -80.212440     -212.536087      -71.572891
 C         -79.135612     -213.034393      -70.630516
 H         -76.716240     -210.897430      -71.711288
 H         -77.020729     -212.548019      -72.314011
 H         -80.503517     -211.547211      -73.478363
 H         -79.472115     -212.859650      -73.545067
 H         -78.658775     -211.028397      -70.103195
 H         -77.407005     -212.192551      -69.797783
 H         -80.698357     -213.419968      -71.773399
 H         -80.774719     -211.682251      -70.960602
 H         -79.521545     -213.270416      -69.651337
 H         -78.564674     -213.865891      -71.112862
