20
 generated by VMD
 C         -39.212769     -107.829536      -37.723335
 N         -39.023521     -106.724144      -37.908176
 H         -39.678490     -108.195580      -33.831429
 H         -39.287586     -108.915329      -37.858322
 C         -40.138088     -109.105804      -34.163219
 C         -39.365768     -110.354454      -34.111477
 C         -41.596424     -109.253883      -34.156975
 C         -39.729618     -111.066757      -32.819687
 C         -42.087421     -110.004089      -32.930305
 C         -41.262844     -111.274117      -32.669693
 H         -38.304451     -109.995247      -34.228897
 H         -39.479149     -110.953232      -35.010738
 H         -41.940876     -108.246170      -34.105740
 H         -42.015816     -109.649628      -35.109970
 H         -39.329205     -110.332573      -32.125668
 H         -39.132034     -112.084099      -32.572189
 H         -43.133003     -110.202980      -33.230156
 H         -41.930595     -109.378899      -32.089176
 H         -41.511078     -111.719688      -31.633335
 H         -41.563282     -111.980385      -33.357006
