20
 generated by VMD
 C         -29.602037      -89.517296      -25.033789
 N         -29.161018      -89.285500      -26.113047
 H         -31.920675      -90.547890      -26.767803
 H         -29.955326      -89.925987      -24.144032
 C         -32.786354      -90.618233      -27.442087
 C         -34.242035      -91.037102      -26.960232
 C         -32.862984      -89.541306      -28.556736
 C         -34.962029      -89.808052      -26.512285
 C         -33.522697      -88.245399      -28.039671
 C         -34.881042      -88.591858      -27.445820
 H         -34.235443      -91.771492      -26.120806
 H         -34.788891      -91.542297      -27.806639
 H         -31.796827      -89.454269      -28.840343
 H         -33.321651      -89.931252      -29.447742
 H         -34.437332      -89.595757      -25.588303
 H         -35.997849      -89.964317      -26.354820
 H         -33.624828      -87.618752      -28.899754
 H         -33.042198      -87.702751      -27.208700
 H         -35.159122      -87.758827      -26.719103
 H         -35.665573      -88.682884      -28.258282
