20
 generated by VMD
 C         -69.950249     -184.327713      -66.100479
 N         -69.006264     -184.139969      -66.755638
 H         -69.578781     -183.867920      -63.390530
 H         -70.784775     -184.581940      -65.436447
 C         -68.965416     -183.625900      -62.577137
 C         -69.158203     -184.711746      -61.442169
 C         -68.134193     -182.481094      -62.329323
 C         -67.959785     -184.895248      -60.458385
 C         -66.914284     -182.875198      -61.435783
 C         -67.303696     -183.570755      -60.118137
 H         -69.480568     -185.659225      -61.798874
 H         -70.097855     -184.340286      -60.988510
 H         -67.615952     -181.999130      -63.274593
 H         -68.797798     -181.721069      -61.928719
 H         -67.465050     -185.739899      -60.801071
 H         -68.460365     -185.175903      -59.526794
 H         -66.276283     -182.004089      -61.109894
 H         -66.181747     -183.393982      -62.101208
 H         -66.406548     -183.565689      -59.403000
 H         -68.116043     -182.856995      -59.709927
