20
 generated by VMD
 C         -38.838650     -109.844086      -35.905094
 N         -37.931431     -109.141602      -36.067142
 H         -42.240795     -110.443932      -37.004597
 H         -39.732967     -110.363739      -35.724178
 C         -41.943748     -111.010101      -36.101166
 C         -41.749214     -112.504059      -36.214272
 C         -42.357693     -110.214928      -34.821663
 C         -41.143784     -113.059860      -34.933846
 C         -41.593613     -110.842102      -33.750763
 C         -41.844135     -112.400665      -33.634052
 H         -41.017014     -112.568573      -37.011524
 H         -42.639664     -113.047554      -36.568409
 H         -42.142078     -109.161407      -35.063786
 H         -43.414612     -110.350151      -34.784142
 H         -40.134113     -112.798538      -34.877785
 H         -41.266911     -114.218185      -35.001068
 H         -41.839211     -110.382370      -32.746258
 H         -40.446198     -110.835197      -33.834663
 H         -41.311985     -112.824814      -32.647285
 H         -42.884792     -112.704803      -33.559322
