20
 generated by VMD
 C         -78.516182     -209.143204      -77.141319
 N         -78.003944     -209.484299      -78.096481
 H         -79.185234     -211.504639      -73.984108
 H         -79.043556     -208.799240      -76.342842
 C         -79.228584     -212.125641      -73.142204
 C         -78.018929     -212.126617      -72.199493
 C         -80.370567     -212.955475      -72.845589
 C         -78.170319     -212.592789      -70.704948
 C         -80.639984     -213.149872      -71.327988
 C         -79.299660     -213.612839      -70.654015
 H         -77.745895     -211.026474      -72.121750
 H         -77.158356     -212.684341      -72.608932
 H         -81.308151     -212.584290      -73.356178
 H         -80.307487     -213.977783      -73.305000
 H         -78.383316     -211.741318      -70.030411
 H         -77.183960     -213.069336      -70.431992
 H         -81.332642     -213.878174      -71.232079
 H         -80.838982     -212.103973      -70.978561
 H         -79.588737     -213.818863      -69.573334
 H         -79.119843     -214.564926      -71.290993
