20
 generated by VMD
 C          -3.608814      -20.072544        3.384085
 N          -4.077568      -19.125200        3.020442
 H          -5.279404      -19.718494       -0.006097
 H          -6.112411      -21.085546       -0.615784
 C          -6.052517      -19.998323       -0.738229
 C          -5.711656      -19.534500       -2.167469
 C          -7.376515      -19.412880       -0.278708
 C          -6.827903      -19.778708       -3.189668
 C          -8.444954      -19.665419       -1.336312
 C          -8.112149      -19.057594       -2.746034
 H          -4.809192      -20.124344       -2.501076
 H          -5.460968      -18.454533       -2.079772
 H          -7.689975      -20.032091        0.525327
 H          -7.289695      -18.378546       -0.156031
 H          -7.000063      -20.832703       -3.357086
 H          -6.426960      -19.381042       -4.142446
 H          -9.376616      -19.148214       -0.983849
 H          -8.705087      -20.713163       -1.532946
 H          -8.941412      -19.342125       -3.402463
 H          -8.053200      -17.946648       -2.628601
