20
 generated by VMD
 C         -40.314373     -107.074585      -37.756672
 N         -39.246708     -106.616249      -37.882187
 H         -38.804710     -108.104233      -34.246136
 H         -41.237751     -107.569344      -37.914963
 C         -39.472946     -108.892471      -33.845837
 C         -38.885418     -110.155800      -33.434986
 C         -40.865417     -108.900261      -34.283684
 C         -39.684673     -110.749756      -32.273823
 C         -41.732662     -109.515327      -33.195740
 C         -41.146347     -110.934830      -32.697052
 H         -37.773064     -110.092148      -33.175587
 H         -38.870258     -110.789047      -34.376591
 H         -41.142933     -107.895935      -34.537273
 H         -40.870430     -109.547188      -35.172215
 H         -39.649151     -110.179260      -31.386089
 H         -39.212845     -111.729752      -32.188759
 H         -42.821312     -109.707939      -33.567314
 H         -41.927998     -108.704933      -32.403248
 H         -41.848000     -111.274307      -31.784151
 H         -41.202549     -111.685509      -33.497837
