20
 generated by VMD
 C         -56.222790     -149.875061      -47.724667
 N         -57.280296     -150.279831      -47.417419
 H         -53.382801     -148.004013      -47.374222
 H         -55.202972     -149.569427      -47.932838
 C         -53.736786     -147.814301      -48.387577
 C         -53.173660     -148.526398      -49.574890
 C         -54.550797     -146.570541      -48.605740
 C         -54.216278     -148.518631      -50.679604
 C         -55.584347     -146.705246      -49.669380
 C         -54.795883     -147.146667      -50.942917
 H         -52.924866     -149.511703      -49.220795
 H         -52.268673     -148.012070      -50.006283
 H         -55.144901     -146.218628      -47.687443
 H         -53.863014     -145.702621      -48.752506
 H         -55.067902     -149.121399      -50.380772
 H         -53.754089     -148.968811      -51.588940
 H         -56.166576     -145.692108      -49.610111
 H         -56.321636     -147.437820      -49.381886
 H         -55.593689     -147.286240      -51.708248
 H         -54.019882     -146.409348      -51.244541
