20
 generated by VMD
 C         -40.520927     -106.149498      -37.102489
 N         -39.797554     -106.783928      -37.728825
 H         -38.703865     -107.720207      -34.107174
 H         -41.036865     -105.531631      -36.409843
 C         -39.161331     -108.743935      -34.048820
 C         -38.462166     -109.761398      -33.094353
 C         -40.515839     -108.841064      -34.510674
 C         -39.396976     -109.984627      -31.995167
 C         -41.485703     -109.170174      -33.373215
 C         -40.875378     -110.385254      -32.439579
 H         -37.573685     -109.291397      -32.755058
 H         -38.356258     -110.667282      -33.697395
 H         -40.681244     -107.830391      -34.910885
 H         -40.508728     -109.583061      -35.351616
 H         -39.633289     -109.206627      -31.223686
 H         -38.868370     -110.817612      -31.510805
 H         -42.346497     -109.534073      -33.901585
 H         -41.570415     -108.290344      -32.723099
 H         -41.476372     -110.577950      -31.605562
 H         -40.917419     -111.301971      -33.109295
