20
 generated by VMD
 C         -78.819366     -209.345154      -76.720154
 N         -79.742821     -208.777542      -77.119148
 H         -77.958687     -208.927307      -72.859291
 H         -77.881645     -209.769974      -76.213280
 C         -77.959435     -209.879028      -72.341011
 C         -76.867599     -210.084824      -71.378441
 C         -79.184303     -210.840729      -72.440742
 C         -77.486237     -210.771729      -70.079292
 C         -79.484283     -211.634537      -71.197113
 C         -78.346603     -211.963272      -70.350304
 H         -76.257759     -209.181473      -71.298012
 H         -76.123482     -210.817429      -71.848839
 H         -80.065193     -210.255798      -72.779144
 H         -78.948715     -211.574448      -73.173988
 H         -78.030617     -209.998001      -69.500580
 H         -76.699570     -211.098679      -69.382248
 H         -79.814102     -212.716690      -71.532921
 H         -80.187813     -211.191208      -70.595329
 H         -78.714523     -212.504974      -69.462379
 H         -77.710892     -212.729279      -70.769615
