20
 generated by VMD
 C         -39.351986     -116.356094      -35.109867
 N         -39.418869     -115.451271      -34.404522
 H         -41.384132     -115.775925      -37.474407
 H         -38.994640     -117.139465      -35.750820
 C         -42.515381     -115.862083      -37.552143
 C         -42.997623     -115.788910      -38.970352
 C         -43.360630     -115.687981      -36.306553
 C         -44.418369     -116.352135      -39.104355
 C         -44.632172     -116.512779      -36.518330
 C         -45.278015     -116.019241      -37.867771
 H         -42.332348     -116.233727      -39.709602
 H         -42.981514     -114.693443      -39.064625
 H         -42.941387     -115.973137      -35.311996
 H         -43.792957     -114.638931      -36.334660
 H         -44.263611     -117.452736      -39.261322
 H         -44.977581     -116.029480      -39.940109
 H         -45.306110     -116.305046      -35.695438
 H         -44.427444     -117.554237      -36.680542
 H         -46.290165     -116.641762      -37.908001
 H         -45.587742     -115.012383      -37.922169
