20
 generated by VMD
 C         -69.285614     -180.320862      -60.454453
 N         -69.324272     -181.476669      -60.404911
 H         -67.352982     -177.318939      -59.698154
 H         -69.129944     -179.289963      -60.603519
 C         -66.320160     -177.308945      -59.903568
 C         -65.992081     -177.355621      -61.324219
 C         -65.264748     -177.123611      -58.892757
 C         -64.919876     -176.249176      -61.723309
 C         -64.257896     -175.966690      -59.070187
 C         -63.745319     -176.189804      -60.654339
 H         -66.931175     -177.067703      -61.894138
 H         -65.746628     -178.363724      -61.631863
 H         -65.757050     -177.032196      -57.848423
 H         -64.665993     -178.007904      -58.874840
 H         -65.419006     -175.266617      -61.644871
 H         -64.524918     -176.514038      -62.683388
 H         -63.500488     -175.887039      -58.246700
 H         -64.849220     -175.009567      -59.153095
 H         -63.176632     -175.213394      -60.856258
 H         -62.980026     -176.956039      -60.581783
