20
 generated by VMD
 C          -7.886719      -23.563852        2.055082
 N          -7.670384      -23.363850        3.125727
 H          -8.886390      -23.556871       -1.624482
 H          -9.437760      -22.435984       -2.880621
 C          -8.593534      -22.867100       -2.402094
 C          -7.747702      -23.737965       -3.398766
 C          -7.780582      -21.727411       -1.724669
 C          -6.990704      -22.911236       -4.448094
 C          -7.052080      -20.924694       -2.773139
 C          -6.106264      -21.838495       -3.657242
 H          -8.387237      -24.473656       -3.827323
 H          -7.046462      -24.381905       -2.836820
 H          -8.528240      -21.058170       -1.268079
 H          -7.048920      -22.078671       -0.965076
 H          -7.615188      -22.417850       -5.188667
 H          -6.354955      -23.527037       -5.111776
 H          -6.416122      -20.176596       -2.309999
 H          -7.758029      -20.386398       -3.418697
 H          -5.553749      -21.206785       -4.350748
 H          -5.427383      -22.328295       -2.921710
