20
 generated by VMD
 C          -8.852279      -23.615198        2.559191
 N          -8.153978      -24.412411        2.939037
 H          -8.516755      -23.471382       -1.361285
 H          -9.311562      -22.723951       -2.568015
 C          -8.288353      -22.961449       -2.265877
 C          -7.706249      -23.987762       -3.253623
 C          -7.414305      -21.772861       -2.040838
 C          -7.230130      -23.262592       -4.548795
 C          -6.964756      -21.179174       -3.308770
 C          -6.250411      -22.177805       -4.149133
 H          -8.482458      -24.742445       -3.403022
 H          -6.875554      -24.558245       -2.866425
 H          -8.000970      -20.966579       -1.551655
 H          -6.584178      -22.128807       -1.413009
 H          -8.108343      -22.850985       -5.088309
 H          -6.700192      -23.976860       -5.141742
 H          -6.248226      -20.362705       -3.044385
 H          -7.837987      -20.768362       -3.854940
 H          -5.951402      -21.611677       -5.078335
 H          -5.345273      -22.541334       -3.638650
