20
 generated by VMD
 C         -40.005558     -100.283516      -30.398962
 N         -40.701778     -100.343025      -31.314207
 H         -37.293793     -102.158981      -30.583838
 H         -39.344532     -100.519119      -29.596972
 C         -36.566395     -101.500389      -30.903000
 C         -36.694115     -100.949295      -32.361683
 C         -35.334072     -101.286049      -30.081337
 C         -36.094982      -99.533333      -32.267750
 C         -34.959946      -99.808174      -30.023603
 C         -34.843834      -99.277054      -31.369637
 H         -37.750801     -100.976585      -32.526901
 H         -36.223347     -101.654495      -33.029423
 H         -35.524902     -101.598267      -29.040247
 H         -34.672749     -101.973900      -30.603434
 H         -36.976902      -98.948860      -31.976055
 H         -35.752834      -99.172241      -33.311657
 H         -33.923302      -99.650185      -29.525587
 H         -35.682510      -99.191048      -29.551485
 H         -34.705788      -98.259094      -31.489408
 H         -33.986576      -99.848633      -31.685253
