20
 generated by VMD
 C         -19.588852      -57.893772      -17.091919
 N         -19.240290      -58.442646      -18.015402
 H         -22.730686      -59.816612      -16.891207
 H         -19.669220      -57.304466      -16.073971
 C         -22.757092      -60.701202      -16.366049
 C         -23.913120      -61.504059      -16.698355
 C         -21.936810      -60.903030      -15.102277
 C         -23.622301      -62.953529      -16.616570
 C         -21.775549      -62.393738      -14.858870
 C         -23.029385      -63.302261      -15.297394
 H         -24.395725      -61.197163      -17.664770
 H         -24.760412      -61.266254      -15.867764
 H         -20.930403      -60.464104      -15.371680
 H         -22.484056      -60.351971      -14.327978
 H         -22.853239      -63.205650      -17.361040
 H         -24.433117      -63.621586      -16.986626
 H         -21.657169      -62.645824      -13.784531
 H         -20.946579      -62.709675      -15.511384
 H         -22.664999      -64.296234      -15.417682
 H         -23.735075      -63.349346      -14.472515
