20
 generated by VMD
 C         -68.391914     -193.862579      -65.819664
 N         -67.986252     -194.692337      -65.108040
 H         -70.456100     -191.704803      -67.114502
 H         -68.487938     -193.119797      -66.540825
 C         -71.488991     -191.795441      -66.744225
 C         -72.234016     -190.456879      -66.496445
 C         -71.992241     -193.092133      -66.037323
 C         -73.653725     -190.595993      -66.154251
 C         -73.039978     -192.798065      -64.966293
 C         -74.174171     -191.930008      -65.442650
 H         -72.185188     -189.910629      -67.485115
 H         -71.786888     -189.795151      -65.696617
 H         -72.383820     -193.651733      -66.868011
 H         -71.148872     -193.672073      -65.659523
 H         -74.355499     -190.488327      -67.011803
 H         -74.082054     -189.760269      -65.551498
 H         -72.452324     -192.301270      -64.159927
 H         -73.496422     -193.695450      -64.446259
 H         -74.571220     -192.527420      -66.368088
 H         -74.959328     -191.819046      -64.802376
