20
 generated by VMD
 C         -49.807114     -128.699707      -42.985229
 N         -50.652203     -128.789291      -43.780792
 H         -48.860573     -128.379364      -40.081676
 H         -49.238537     -128.716476      -42.054359
 C         -47.870388     -128.261581      -40.449520
 C         -46.713600     -129.146393      -39.933834
 C         -47.427628     -126.882973      -41.097332
 C         -45.582985     -129.218948      -41.102924
 C         -46.355400     -127.202545      -42.160583
 C         -45.138477     -127.945587      -41.623653
 H         -47.190800     -130.062561      -39.768112
 H         -46.221500     -128.871445      -38.962456
 H         -48.230141     -126.281189      -41.455410
 H         -46.941021     -126.156433      -40.218605
 H         -46.189583     -129.754883      -41.914173
 H         -44.690098     -129.673218      -40.595890
 H         -46.197567     -126.192215      -42.645649
 H         -46.867214     -127.903572      -42.886562
 H         -44.397453     -128.115311      -42.419945
 H         -44.640663     -127.277832      -40.931992
