20
 generated by VMD
 C         -23.051821      -68.522423      -16.632721
 N         -23.075699      -69.298157      -15.749286
 H         -23.939739      -66.141281      -18.655485
 H         -23.046633      -67.758354      -17.371742
 C         -24.533960      -66.845268      -19.211027
 C         -23.961918      -67.631470      -20.372963
 C         -25.964619      -66.973686      -18.965368
 C         -24.554283      -69.058212      -20.590607
 C         -26.438416      -68.364662      -19.326017
 C         -26.016922      -69.141327      -20.589409
 H         -22.787373      -67.754189      -20.300976
 H         -24.149889      -67.076393      -21.296228
 H         -26.142223      -66.518463      -18.053499
 H         -26.592211      -66.236839      -19.455008
 H         -24.262953      -69.743172      -19.867134
 H         -24.194370      -69.436996      -21.504005
 H         -27.512398      -68.382599      -19.345232
 H         -26.333979      -68.938766      -18.413183
 H         -26.480619      -70.182396      -20.435173
 H         -26.399790      -68.605690      -21.524088
