20
 generated by VMD
 C         -53.478485     -147.655182      -45.518616
 N         -54.488033     -147.726807      -44.909412
 H         -54.969795     -147.900284      -48.798615
 H         -52.480049     -147.569916      -45.988670
 C         -54.499474     -146.896545      -48.879089
 C         -53.227642     -146.613663      -49.654575
 C         -54.975677     -145.637405      -48.092037
 C         -53.342331     -145.354080      -50.522202
 C         -55.153378     -144.370636      -49.021427
 C         -53.920296     -144.114395      -49.876896
 H         -52.991489     -147.493561      -50.385612
 H         -52.420975     -146.543610      -48.914650
 H         -55.893116     -145.866272      -47.554268
 H         -54.287621     -145.280411      -47.411865
 H         -53.858143     -145.461105      -51.468517
 H         -52.405891     -145.122498      -51.007931
 H         -55.450039     -143.379105      -48.450191
 H         -56.009563     -144.552750      -49.649387
 H         -53.982105     -143.189911      -50.549530
 H         -53.172947     -143.953552      -49.061432
