20
 generated by VMD
 C         -69.014442     -193.241837      -66.532318
 N         -67.883850     -193.517365      -66.540955
 H         -69.931282     -190.184219      -65.472801
 H         -70.053032     -193.015015      -66.797180
 C         -70.949173     -190.611496      -65.359291
 C         -71.804710     -190.737244      -66.615906
 C         -71.493927     -191.016464      -64.070396
 C         -72.958221     -191.745773      -66.522377
 C         -73.028412     -190.873428      -64.008492
 C         -73.674332     -191.781738      -65.073570
 H         -71.288292     -190.899231      -67.544540
 H         -72.253777     -189.700043      -66.784935
 H         -71.084496     -191.985550      -63.757999
 H         -71.108704     -190.412613      -63.246716
 H         -72.463745     -192.675446      -66.606682
 H         -73.759224     -191.546906      -67.197296
 H         -73.284683     -189.806747      -63.982346
 H         -73.339775     -191.246735      -63.022228
 H         -73.784668     -192.763321      -64.502357
 H         -74.824120     -191.555695      -65.291214
