20
 generated by VMD
 C         -10.578409      -37.515564       -8.083810
 N         -10.776670      -36.693260       -7.351017
 H         -12.691762      -39.364021       -7.968306
 H         -14.127835      -39.309326       -6.882280
 C         -13.754093      -39.706863       -7.896043
 C         -13.779889      -41.284176       -7.841881
 C         -14.675950      -39.169270       -9.015425
 C         -15.198214      -41.805763       -7.609155
 C         -16.069828      -39.773045       -8.867364
 C         -16.133686      -41.302341       -8.726781
 H         -13.197589      -41.609829       -6.944559
 H         -13.339485      -41.576797       -8.835696
 H         -14.763689      -38.094307       -8.891870
 H         -14.289855      -39.490185       -9.993298
 H         -15.634560      -41.421211       -6.663290
 H         -15.098550      -42.874908       -7.644421
 H         -16.676500      -39.531212       -9.796102
 H         -16.625864      -39.405567       -8.042958
 H         -17.177517      -41.693298       -8.692964
 H         -15.720924      -41.582039       -9.734617
