20
 generated by VMD
 C         -49.346672     -141.352631      -45.799133
 N         -48.776649     -141.615967      -44.796894
 H         -51.593590     -138.503738      -46.214336
 H         -49.765606     -140.936264      -46.710495
 C         -52.259544     -139.291168      -46.401703
 C         -52.803104     -139.385696      -47.691120
 C         -52.811050     -139.999786      -45.166512
 C         -53.173199     -140.892792      -48.009293
 C         -53.304153     -141.353775      -45.596073
 C         -54.108822     -141.394196      -46.954700
 H         -52.123867     -139.021820      -48.518715
 H         -53.662617     -138.687592      -47.651859
 H         -52.038654     -140.055191      -44.361416
 H         -53.688366     -139.461014      -44.644604
 H         -52.306767     -141.421677      -48.070271
 H         -53.687962     -141.064774      -48.965141
 H         -53.703018     -141.847900      -44.667027
 H         -52.441704     -141.990494      -45.787792
 H         -54.443924     -142.497162      -47.104492
 H         -55.074684     -140.789001      -46.984283
