20
 generated by VMD
 C         -29.391668      -74.669327      -19.603655
 N         -30.435232      -74.399757      -20.088488
 H         -25.787098      -73.462753      -18.810850
 H         -28.427330      -74.770920      -18.955000
 C         -25.692831      -73.361900      -19.917500
 C         -25.350710      -74.549171      -20.770519
 C         -25.465605      -71.975136      -20.452303
 C         -26.002884      -74.489113      -22.112501
 C         -26.097281      -71.890762      -21.933605
 C         -25.636978      -73.171974      -22.717693
 H         -25.619276      -75.513161      -20.185501
 H         -24.270969      -74.604355      -20.839157
 H         -25.757853      -71.109367      -19.808796
 H         -24.439621      -71.736526      -20.653240
 H         -27.070080      -74.399254      -22.142185
 H         -25.776318      -75.413857      -22.635769
 H         -25.997972      -70.909439      -22.523809
 H         -27.157099      -72.071281      -21.701731
 H         -26.135424      -73.121323      -23.768150
 H         -24.566811      -73.205269      -22.917339
