20
 generated by VMD
 C         -80.224815     -206.900146      -74.064140
 N         -80.533325     -206.493774      -75.070747
 H         -76.595467     -207.628662      -73.165260
 H         -80.052727     -207.164917      -72.984657
 C         -76.701149     -207.477356      -72.025681
 C         -75.479401     -206.890213      -71.390076
 C         -77.219490     -208.577927      -71.138855
 C         -75.513168     -206.494385      -69.899216
 C         -77.230247     -208.226456      -69.562408
 C         -75.868073     -207.758743      -69.147461
 H         -75.324013     -205.987259      -72.010590
 H         -74.535484     -207.348206      -71.531334
 H         -78.261284     -208.737320      -71.490448
 H         -76.701981     -209.526825      -71.392845
 H         -76.290939     -205.716339      -69.846565
 H         -74.527992     -206.131561      -69.495407
 H         -77.471703     -209.228210      -69.039955
 H         -78.070290     -207.577225      -69.373177
 H         -75.708160     -207.631073      -68.114914
 H         -75.069252     -208.587204      -69.384293
