20
 generated by VMD
 C         -41.826500     -120.239494      -34.467880
 N         -42.306492     -121.275406      -34.295883
 H         -43.585510     -119.777687      -37.405239
 H         -41.317715     -119.330452      -34.553612
 C         -43.966404     -119.177773      -38.232071
 C         -43.125713     -118.899887      -39.424404
 C         -45.237846     -118.457916      -38.089417
 C         -43.955936     -118.840836      -40.714291
 C         -46.026062     -118.530983      -39.427296
 C         -45.224194     -117.992027      -40.545044
 H         -42.227955     -119.540482      -39.630272
 H         -42.614246     -117.874344      -39.473965
 H         -45.730225     -119.043335      -37.230286
 H         -45.152519     -117.358154      -37.843594
 H         -44.292027     -119.850525      -40.931709
 H         -43.286728     -118.449257      -41.533585
 H         -46.839314     -117.960838      -39.338329
 H         -46.389072     -119.475540      -39.786137
 H         -45.688538     -118.026871      -41.540089
 H         -44.996258     -116.903099      -40.419544
