20
 generated by VMD
 C         -41.066364     -104.554688      -36.033119
 N         -42.093761     -104.957848      -36.444336
 H         -38.173576     -104.135826      -33.319859
 H         -40.274513     -104.051636      -35.526302
 C         -38.218403     -105.044403      -32.807209
 C         -36.978413     -105.544914      -32.197140
 C         -39.081635     -106.130501      -33.341309
 C         -37.203907     -106.694534      -31.150162
 C         -39.417358     -107.204498      -32.320496
 C         -38.127022     -107.838516      -31.681124
 H         -36.352470     -104.684433      -31.837019
 H         -36.392437     -106.095650      -33.056843
 H         -39.987751     -105.627884      -33.657768
 H         -38.636520     -106.732895      -34.117809
 H         -37.791622     -106.083473      -30.424475
 H         -36.234737     -107.025948      -30.812366
 H         -40.105789     -107.980934      -32.680580
 H         -40.104141     -106.725014      -31.578213
 H         -38.427811     -108.526527      -30.899731
 H         -37.596584     -108.477753      -32.437706
