20
 generated by VMD
 C         -11.433411      -33.746304       -9.212570
 N         -11.288434      -34.358780       -8.254566
 H         -11.505830      -37.159042       -8.071949
 H         -12.028548      -36.479168       -6.544183
 C         -12.225685      -37.287525       -7.250033
 C         -12.144543      -38.685055       -6.629210
 C         -13.615826      -37.139076       -7.864738
 C         -13.229639      -38.798325       -5.534432
 C         -14.755497      -37.344296       -6.848740
 C         -14.601031      -38.732788       -6.189866
 H         -11.150320      -38.887676       -6.209849
 H         -12.288002      -39.402832       -7.422015
 H         -13.691236      -36.194878       -8.405588
 H         -13.764094      -37.861382       -8.653344
 H         -13.128563      -38.124470       -4.668453
 H         -13.146825      -39.776966       -5.147538
 H         -15.747254      -37.348503       -7.334978
 H         -14.815703      -36.615269       -6.042525
 H         -15.355074      -38.755703       -5.343611
 H         -14.817006      -39.550205       -6.883622
