20
 generated by VMD
 C         -58.746811     -158.983994      -57.417885
 N         -59.067902     -158.176163      -58.127106
 H         -59.451874     -159.521255      -54.537502
 H         -58.482990     -159.760437      -56.709991
 C         -59.535049     -160.271271      -53.713142
 C         -58.520695     -160.347672      -52.672840
 C         -60.569004     -161.375748      -53.754887
 C         -58.997425     -160.896225      -51.289997
 C         -61.175411     -161.667068      -52.400696
 C         -60.159439     -161.972000      -51.304329
 H         -58.162907     -159.337601      -52.483269
 H         -57.557747     -160.867950      -53.088573
 H         -61.386505     -161.171326      -54.397461
 H         -59.974888     -162.238083      -54.104000
 H         -59.285412     -160.045227      -50.801579
 H         -58.020836     -161.436798      -50.961128
 H         -61.729626     -162.596634      -52.508240
 H         -61.870838     -160.861832      -52.134346
 H         -60.554909     -161.960510      -50.287857
 H         -59.577488     -162.940460      -51.521111
