20
 generated by VMD
 C         -40.171288     -104.958176      -36.915604
 N         -39.604034     -103.974968      -37.099609
 H         -39.747654     -108.596252      -35.369652
 H         -40.815327     -105.856476      -36.978794
 C         -39.733845     -108.663246      -34.302475
 C         -38.547894     -108.016159      -33.550514
 C         -40.298611     -109.866257      -33.588921
 C         -38.890789     -107.566322      -32.201340
 C         -40.546455     -109.548538      -32.111271
 C         -39.355503     -108.870613      -31.430252
 H         -38.366795     -107.039131      -34.131397
 H         -37.628452     -108.636589      -33.532936
 H         -41.240067     -110.232178      -33.983471
 H         -39.655357     -110.688622      -33.655392
 H         -39.651638     -106.840614      -32.225494
 H         -38.030441     -107.137650      -31.711645
 H         -40.890194     -110.496284      -31.609503
 H         -41.521347     -108.918579      -31.958549
 H         -39.766617     -108.599503      -30.417263
 H         -38.623074     -109.560089      -31.203033
