20
 generated by VMD
 C         -13.382299      -30.872725       -8.303880
 N         -13.074452      -30.049959       -8.960362
 H         -11.324965      -31.981129       -6.290028
 H         -11.572960      -32.125977       -4.454320
 C         -11.238100      -32.651550       -5.364940
 C          -9.775111      -33.028488       -5.178459
 C         -12.087728      -33.890789       -5.564729
 C          -9.649393      -33.944229       -3.967594
 C         -12.031961      -34.842117       -4.396334
 C         -10.577547      -35.234913       -4.135933
 H          -9.201952      -32.112118       -5.092823
 H          -9.522031      -33.581066       -6.092453
 H         -13.123475      -33.573689       -5.817694
 H         -11.638917      -34.437965       -6.407973
 H          -9.958619      -33.481907       -3.063172
 H          -8.614117      -34.232075       -3.918945
 H         -12.633890      -35.776913       -4.678583
 H         -12.431480      -34.409451       -3.508882
 H         -10.582805      -35.861115       -3.214511
 H         -10.136687      -35.756805       -4.955166
