20
 generated by VMD
 C         -31.247313      -77.556419      -25.779921
 N         -31.631775      -77.988609      -26.792212
 H         -29.299728      -78.497528      -22.934996
 H         -30.517284      -77.348053      -24.924778
 C         -28.959841      -79.468239      -23.207979
 C         -27.470837      -79.680649      -23.296032
 C         -29.816217      -80.644241      -22.840401
 C         -26.906759      -80.235260      -22.028875
 C         -29.213655      -81.199944      -21.464306
 C         -27.709953      -81.457123      -21.477154
 H         -26.964895      -78.718811      -23.541084
 H         -27.366911      -80.522255      -24.079403
 H         -30.811363      -80.385780      -22.739330
 H         -29.716963      -81.494980      -23.615154
 H         -27.026697      -79.472733      -21.237679
 H         -25.819122      -80.303391      -22.157545
 H         -29.748507      -82.140976      -21.258667
 H         -29.449064      -80.484863      -20.686111
 H         -27.419605      -81.742561      -20.377390
 H         -27.590237      -82.364403      -22.121944
