20
 generated by VMD
 C         -77.376785     -202.854538      -68.846886
 N         -77.511467     -203.807449      -68.196526
 H         -75.015503     -201.505020      -67.299690
 H         -77.102997     -201.876221      -69.329170
 C         -74.869469     -201.216583      -68.299408
 C         -75.219872     -199.745743      -68.527069
 C         -73.731102     -202.005966      -68.946587
 C         -74.415161     -199.135757      -69.711662
 C         -73.104958     -201.275803      -70.199844
 C         -74.045692     -200.198395      -70.737221
 H         -74.995041     -199.156250      -67.578102
 H         -76.286606     -199.667892      -68.854790
 H         -72.940392     -202.280319      -68.235565
 H         -74.041145     -203.015030      -69.214554
 H         -73.663567     -198.514725      -69.240379
 H         -75.076141     -198.370285      -70.164108
 H         -73.031364     -202.119812      -71.011734
 H         -72.067108     -200.740448      -70.049850
 H         -73.462616     -199.731033      -71.573959
 H         -74.884285     -200.757828      -71.120285
