20
 generated by VMD
 C         -40.072025     -116.870987      -34.549767
 N         -39.404945     -115.900818      -34.527367
 H         -41.375500     -115.923813      -37.974689
 H         -40.706047     -117.827660      -34.500546
 C         -42.507618     -116.187706      -37.912212
 C         -43.206635     -115.806686      -39.163509
 C         -43.244831     -115.929085      -36.652046
 C         -44.470116     -116.580162      -39.259079
 C         -44.587635     -116.592216      -36.635574
 C         -45.311523     -116.541969      -38.039833
 H         -42.553467     -115.978073      -39.991081
 H         -43.555817     -114.821091      -39.178890
 H         -42.545872     -116.258049      -35.777340
 H         -43.372681     -114.814522      -36.643196
 H         -44.313713     -117.604881      -39.652454
 H         -45.039539     -116.052170      -40.109669
 H         -45.204113     -116.029526      -35.950924
 H         -44.529915     -117.577057      -36.320812
 H         -46.240673     -117.187332      -37.977951
 H         -45.878654     -115.684784      -37.858540
