20
 generated by VMD
 C         -28.372194      -86.967857      -27.054783
 N         -27.576902      -87.052071      -26.211098
 H         -30.986256      -88.111786      -25.438889
 H         -29.271160      -86.953804      -27.790131
 C         -32.041370      -88.178253      -25.721727
 C         -33.273003      -88.309959      -24.700661
 C         -32.254807      -88.246155      -27.185680
 C         -34.608143      -87.694855      -25.280373
 C         -33.504936      -87.428993      -27.511467
 C         -34.730198      -87.939125      -26.812172
 H         -33.185207      -87.727432      -23.722607
 H         -33.431900      -89.388321      -24.577963
 H         -31.428795      -87.808975      -27.782000
 H         -32.527378      -89.203453      -27.575321
 H         -34.756500      -86.652130      -25.107880
 H         -35.520031      -88.036812      -24.785206
 H         -33.605064      -87.575127      -28.570724
 H         -33.135841      -86.375923      -27.369486
 H         -35.623306      -87.363586      -27.172674
 H         -34.924530      -89.058624      -27.059025
