20
 generated by VMD
 C         -10.863365      -37.528595       -7.215673
 N         -11.565599      -37.500553       -8.119247
 H         -12.447538      -40.081371       -8.096642
 H         -13.756014      -39.903679       -6.964482
 C         -13.550413      -40.256016       -8.002881
 C         -13.965234      -41.690445       -8.018167
 C         -14.322964      -39.490810       -9.019569
 C         -15.426411      -41.798859       -7.739119
 C         -15.825324      -39.691814       -9.050515
 C         -16.199362      -41.141121       -8.810118
 H         -13.410162      -42.217430       -7.244568
 H         -13.779068      -42.232948       -8.961698
 H         -14.184448      -38.433609       -8.926972
 H         -13.941815      -39.772320      -10.013462
 H         -15.639955      -41.430176       -6.761506
 H         -15.725731      -42.858685       -7.762119
 H         -16.174343      -39.461933      -10.017230
 H         -16.332001      -38.992279       -8.287407
 H         -17.294016      -41.209568       -8.652551
 H         -15.970805      -41.754112       -9.749005
