20
 generated by VMD
 C         -78.266258     -204.226456      -69.289551
 N         -79.091568     -203.901154      -69.975311
 H         -75.578430     -202.349350      -67.589653
 H         -77.555130     -204.480026      -68.497482
 C         -75.118179     -202.087250      -68.498627
 C         -75.359421     -200.755371      -69.052345
 C         -74.113907     -203.045792      -69.006676
 C         -74.917442     -200.604233      -70.510597
 C         -72.879944     -202.146820      -69.496704
 C         -73.454254     -201.128159      -70.607323
 H         -74.857353     -200.086716      -68.395721
 H         -76.464561     -200.457672      -69.001579
 H         -73.740669     -203.684601      -68.158173
 H         -74.626854     -203.587494      -69.862068
 H         -75.017250     -199.537125      -70.826012
 H         -75.561478     -201.094269      -71.235947
 H         -72.133102     -202.676208      -70.050873
 H         -72.510918     -201.607254      -68.607811
 H         -72.859558     -200.272766      -70.692673
 H         -73.394341     -201.605804      -71.516121
