20
 generated by VMD
 C         -21.613558      -55.854187      -17.613607
 N         -20.676701      -55.363934      -17.988747
 H         -23.291323      -58.532013      -15.222445
 H         -22.442368      -56.397961      -17.109589
 C         -22.326200      -59.058281      -15.009162
 C         -21.663868      -58.925262      -13.710780
 C         -21.674980      -59.861256      -16.037321
 C         -20.926447      -60.166008      -13.206271
 C         -20.301777      -60.406708      -15.656014
 C         -20.315929      -61.087872      -14.350727
 H         -22.497580      -58.693913      -13.024686
 H         -20.910053      -58.071770      -13.627835
 H         -22.265265      -60.764488      -16.216356
 H         -21.477877      -59.242939      -16.918770
 H         -21.651440      -60.727985      -12.681083
 H         -20.174084      -59.928226      -12.466080
 H         -19.661585      -59.523945      -15.467117
 H         -19.968702      -61.100094      -16.452265
 H         -21.015190      -61.940544      -14.334408
 H         -19.383848      -61.609623      -13.980631
