20
 generated by VMD
 C         -30.889032      -92.818993      -26.110008
 N         -30.288736      -92.547203      -25.134100
 H         -32.670082      -89.848976      -26.420530
 H         -31.397095      -93.024834      -27.073820
 C         -33.371784      -90.154213      -27.212261
 C         -33.929920      -91.507080      -27.143419
 C         -33.332241      -89.323563      -28.568771
 C         -35.280598      -91.656319      -27.869987
 C         -34.647114      -89.697174      -29.276577
 C         -35.008125      -91.165215      -29.229034
 H         -34.178509      -91.883789      -26.186283
 H         -33.267391      -92.175064      -27.620581
 H         -33.109928      -88.247169      -28.442787
 H         -32.440437      -89.687538      -29.028944
 H         -35.985668      -91.052483      -27.290552
 H         -35.760906      -92.649521      -27.916056
 H         -34.562771      -89.247070      -30.230965
 H         -35.399475      -89.217468      -28.677431
 H         -35.835892      -91.408073      -29.880989
 H         -34.129238      -91.518219      -29.711576
