20
 generated by VMD
 C         -75.972153     -202.647095      -66.380447
 N         -76.821587     -203.019485      -65.673508
 H         -75.819633     -200.106628      -69.043633
 H         -75.394958     -202.306488      -67.191307
 C         -74.801140     -199.662766      -69.008133
 C         -74.867142     -198.287048      -68.445618
 C         -73.853020     -200.075745      -70.045944
 C         -73.423378     -197.626633      -68.542801
 C         -73.166397     -198.966690      -70.764229
 C         -72.747673     -197.833466      -69.921936
 H         -75.091423     -198.359268      -67.361511
 H         -75.612885     -197.779465      -68.886536
 H         -73.085281     -200.711990      -69.634323
 H         -74.408058     -200.614380      -70.733627
 H         -72.771790     -198.068741      -67.734245
 H         -73.387856     -196.544815      -68.134003
 H         -73.786743     -198.432983      -71.448555
 H         -72.325264     -199.443146      -71.286102
 H         -71.589951     -197.900879      -69.671501
 H         -72.776787     -196.919830      -70.438667
