20
 generated by VMD
 C         -27.478710      -72.773026      -17.995556
 N         -28.043470      -73.452644      -17.234610
 H         -24.875320      -70.586784      -18.754509
 H         -26.738899      -72.103836      -18.626759
 C         -25.070448      -70.818886      -19.754869
 C         -24.523659      -72.059631      -20.343105
 C         -25.562767      -69.737801      -20.643183
 C         -25.285236      -72.560326      -21.577848
 C         -26.534805      -70.402039      -21.701687
 C         -25.740757      -71.462357      -22.458473
 H         -24.470074      -72.898369      -19.580383
 H         -23.493004      -71.894112      -20.625071
 H         -26.110683      -68.953995      -20.004028
 H         -24.697598      -69.200546      -21.066168
 H         -26.122181      -73.252441      -21.440189
 H         -24.563730      -73.079453      -22.216820
 H         -26.878382      -69.608727      -22.402016
 H         -27.318659      -70.748886      -21.024981
 H         -26.289322      -71.776985      -23.299892
 H         -24.829735      -71.073830      -22.907095
