20
 generated by VMD
 C         -30.894430      -74.968643      -22.662006
 N         -31.234512      -75.574783      -21.701120
 H         -28.789721      -77.164795      -21.667532
 H         -30.597298      -74.315331      -23.413330
 C         -27.762648      -77.012672      -21.385874
 C         -26.686359      -77.693687      -22.144655
 C         -27.376783      -75.789673      -20.638130
 C         -25.827196      -76.769203      -22.917730
 C         -26.472929      -74.891418      -21.515741
 C         -25.359449      -75.568527      -22.150049
 H         -27.113136      -78.541298      -22.818300
 H         -26.006052      -78.303337      -21.548382
 H         -28.226313      -75.296532      -20.347078
 H         -26.840281      -76.164597      -19.796082
 H         -26.406382      -76.406242      -23.828878
 H         -24.994244      -77.423248      -23.234858
 H         -26.221548      -74.041397      -20.892437
 H         -27.115570      -74.385529      -22.316730
 H         -24.813671      -74.879890      -22.840538
 H         -24.507006      -75.592056      -21.423523
