20
 generated by VMD
 C         -47.940758     -136.456558      -46.030918
 N         -46.913059     -136.053543      -46.377838
 H         -50.927830     -135.559464      -45.846718
 H         -48.776711     -136.805038      -45.460636
 C         -51.563377     -136.282867      -45.318291
 C         -52.275265     -137.403946      -46.036850
 C         -51.770908     -136.172089      -43.885220
 C         -51.847057     -138.688141      -45.356682
 C         -51.465977     -137.556595      -43.212536
 C         -52.290863     -138.677826      -43.880093
 H         -51.996284     -137.430008      -47.040272
 H         -53.418831     -137.360870      -45.961926
 H         -51.167149     -135.353088      -43.360226
 H         -52.872272     -136.018585      -43.722206
 H         -50.824406     -138.988892      -45.610767
 H         -52.528225     -139.443008      -45.873257
 H         -51.590397     -137.429840      -42.187893
 H         -50.354332     -137.816147      -43.396027
 H         -51.893238     -139.588348      -43.421185
 H         -53.268559     -138.391556      -43.825481
