20
 generated by VMD
 C         -59.880390     -156.918228      -56.496204
 N         -60.987438     -156.447449      -56.468822
 H         -59.833427     -157.324020      -53.124081
 H         -58.824238     -157.250961      -56.333599
 C         -58.901070     -157.876785      -52.721920
 C         -57.716286     -157.096954      -52.377815
 C         -58.938290     -159.325043      -52.453411
 C         -57.386707     -157.434998      -50.883862
 C         -58.394333     -159.681213      -51.054676
 C         -57.144733     -158.967667      -50.644981
 H         -58.115303     -156.089966      -52.479851
 H         -56.840092     -157.206177      -53.202190
 H         -59.991497     -159.808441      -52.493607
 H         -58.343845     -159.898193      -53.199627
 H         -58.293659     -157.135712      -50.120525
 H         -56.451412     -156.927505      -50.679379
 H         -58.151428     -160.739716      -51.157909
 H         -59.272835     -159.555176      -50.318855
 H         -56.905449     -159.267395      -49.528118
 H         -56.363476     -159.284027      -51.272346
