20
 generated by VMD
 C         -41.710499     -102.275589      -34.146561
 N         -40.907036     -101.833755      -34.887989
 H         -39.416740     -104.096008      -32.475494
 H         -42.162731     -102.975510      -33.362347
 C         -38.360661     -104.108665      -32.100670
 C         -37.369804     -103.609962      -33.025562
 C         -38.118191     -105.047562      -30.938326
 C         -35.972584     -103.335655      -32.287804
 C         -36.924973     -104.465332      -30.225405
 C         -35.756374     -104.400269      -31.233177
 H         -37.788006     -102.772156      -33.586430
 H         -36.920773     -104.372749      -33.666138
 H         -38.960812     -105.022804      -30.159889
 H         -38.034145     -106.113747      -31.221645
 H         -36.123188     -102.335060      -31.912916
 H         -35.177422     -103.263451      -33.025948
 H         -36.733372     -105.175926      -29.298515
 H         -37.159817     -103.505981      -29.788694
 H         -34.848064     -104.163300      -30.618555
 H         -35.660995     -105.356003      -31.706478
