20
 generated by VMD
 C          -3.125187      -17.581741        2.588197
 N          -3.055133      -18.023460        1.569559
 H          -5.280690      -19.567593        0.989971
 H          -5.489110      -20.362146       -0.592898
 C          -5.839304      -19.501331        0.021414
 C          -5.540530      -18.213812       -0.727621
 C          -7.395514      -19.645695        0.237684
 C          -6.332029      -18.040953       -2.027938
 C          -8.116230      -19.429470       -1.117564
 C          -7.797435      -18.076347       -1.758052
 H          -4.488889      -18.152872       -0.949077
 H          -5.741260      -17.323561       -0.028149
 H          -7.680368      -20.671644        0.612651
 H          -7.713315      -18.951191        1.135277
 H          -6.026252      -18.787216       -2.747145
 H          -6.058586      -17.093372       -2.596657
 H          -9.179896      -19.541981       -1.012946
 H          -7.880855      -20.196167       -1.838097
 H          -8.364613      -18.066330       -2.701191
 H          -8.198589      -17.224134       -1.186377
