20
 generated by VMD
 C         -31.391983      -77.953239      -26.415186
 N         -31.702522      -77.973442      -27.519352
 H         -29.433475      -79.135223      -24.033539
 H         -31.279034      -77.889282      -25.282715
 C         -29.025719      -79.904503      -23.244284
 C         -27.558634      -80.119675      -23.084215
 C         -29.975876      -81.089806      -22.906858
 C         -27.162628      -80.893303      -21.740747
 C         -29.521955      -81.812271      -21.610182
 C         -28.006756      -82.209023      -21.731060
 H         -27.196724      -79.002472      -23.092077
 H         -27.099171      -80.741127      -23.946196
 H         -31.008694      -80.693283      -22.839317
 H         -29.901119      -81.906075      -23.558464
 H         -27.288437      -80.406319      -20.782291
 H         -26.096516      -81.223549      -21.852419
 H         -30.220739      -82.681625      -21.478861
 H         -29.604551      -81.258331      -20.750917
 H         -27.518246      -82.890884      -21.024519
 H         -27.829756      -82.734619      -22.756247
