20
 generated by VMD
 C         -78.959908     -207.404633      -75.302269
 N         -80.001480     -206.965179      -75.659393
 H         -77.720940     -209.134293      -73.486069
 H         -77.992020     -207.975189      -75.110542
 C         -77.620125     -209.013504      -72.352570
 C         -76.353729     -208.373932      -71.732758
 C         -78.248726     -210.148453      -71.523048
 C         -76.473259     -208.106934      -70.215424
 C         -78.212837     -209.857574      -70.005981
 C         -76.817696     -209.413345      -69.494026
 H         -76.336922     -207.457993      -72.309357
 H         -75.460190     -208.900543      -72.009613
 H         -79.256989     -210.386902      -71.906769
 H         -77.697060     -211.093994      -71.460739
 H         -77.057358     -207.215088      -69.929962
 H         -75.446686     -207.846176      -69.868088
 H         -78.480026     -210.848450      -69.453033
 H         -79.012955     -209.188492      -69.814301
 H         -76.757515     -209.131699      -68.438515
 H         -76.131172     -210.296631      -69.695892
