20
 generated by VMD
 C         -69.363678     -180.346710      -60.110798
 N         -69.035233     -181.400848      -60.436295
 H         -67.200340     -177.641174      -59.729012
 H         -69.671082     -179.398056      -59.719513
 C         -66.370468     -176.990448      -59.867851
 C         -65.985359     -177.051147      -61.395481
 C         -65.292404     -177.083084      -58.824551
 C         -64.853661     -176.029312      -61.632687
 C         -64.206146     -175.952042      -59.181866
 C         -63.721088     -176.162125      -60.669228
 H         -66.921959     -176.842911      -61.950485
 H         -65.676605     -178.096100      -61.442562
 H         -65.537544     -176.994522      -57.763279
 H         -64.758026     -178.000320      -58.883858
 H         -65.234871     -174.965607      -61.542301
 H         -64.478302     -175.932343      -62.634785
 H         -63.270462     -176.131165      -58.653328
 H         -64.353600     -174.916046      -58.952682
 H         -62.917530     -175.461029      -60.919239
 H         -63.342384     -177.146912      -60.546745
