20
 generated by VMD
 C         -68.405884     -194.224014      -66.518013
 N         -67.707443     -193.984863      -65.607269
 H         -70.256226     -190.836273      -66.228111
 H         -69.160652     -194.425644      -67.347786
 C         -71.278854     -190.985901      -65.985786
 C         -72.364296     -190.266922      -66.620949
 C         -71.461662     -191.826172      -64.705711
 C         -73.696846     -191.031265      -66.516335
 C         -72.948906     -191.722290      -64.213470
 C         -73.838394     -191.919357      -65.396927
 H         -72.126724     -190.043121      -67.674156
 H         -72.622597     -189.294861      -66.090782
 H         -71.272018     -192.921555      -65.087784
 H         -70.632774     -191.466125      -64.037422
 H         -73.877991     -191.563736      -67.536400
 H         -74.455399     -190.188293      -66.380890
 H         -73.135132     -190.662994      -63.891521
 H         -73.109787     -192.380478      -63.325069
 H         -73.628006     -192.825943      -65.800102
 H         -74.924942     -191.892075      -64.965462
