20
 generated by VMD
 C         -79.219315     -204.478104      -70.698029
 N         -80.186134     -205.052780      -70.666519
 H         -76.698814     -202.805618      -68.530891
 H         -78.255936     -203.988907      -70.661171
 C         -75.824875     -202.932114      -69.126755
 C         -75.596443     -202.269913      -70.416061
 C         -74.774498     -203.950180      -68.822243
 C         -74.291031     -201.510849      -70.232094
 C         -73.315628     -203.428696      -69.209213
 C         -73.235184     -202.487656      -70.449867
 H         -76.458733     -201.601776      -70.606590
 H         -75.620186     -202.942078      -71.307922
 H         -74.887840     -204.388153      -67.833626
 H         -74.960388     -204.954437      -69.313210
 H         -74.131958     -201.029099      -69.248337
 H         -74.317276     -200.679977      -70.913666
 H         -72.656967     -204.329147      -69.272888
 H         -72.827797     -202.934814      -68.245781
 H         -72.218628     -202.074066      -70.533844
 H         -73.336365     -202.949234      -71.494347
