20
 generated by VMD
 C         -27.533237      -81.207512      -27.236862
 N         -28.496649      -81.714439      -27.647043
 H         -29.888851      -83.853210      -25.606693
 H         -26.569374      -80.679497      -27.052710
 C         -30.751614      -84.227501      -25.029367
 C         -30.592281      -84.147522      -23.575729
 C         -31.585840      -85.301941      -25.611841
 C         -31.816975      -84.607346      -22.788994
 C         -32.754810      -85.834328      -24.746759
 C         -32.245102      -86.033173      -23.256718
 H         -30.403694      -83.107773      -23.417412
 H         -29.665661      -84.830734      -23.430803
 H         -32.134384      -85.000099      -26.542984
 H         -30.857641      -86.009094      -25.989536
 H         -32.642471      -84.009651      -23.066887
 H         -31.781168      -84.623283      -21.644484
 H         -33.157887      -86.794273      -25.280842
 H         -33.480759      -85.075340      -24.978510
 H         -33.175850      -86.400047      -22.755106
 H         -31.481155      -86.852943      -23.134703
