20
 generated by VMD
 C         -59.023891     -159.363968      -57.388607
 N         -58.281189     -160.178253      -57.886036
 H         -58.811653     -161.263504      -54.926235
 H         -59.626736     -158.616287      -56.890503
 C         -59.466576     -161.643326      -54.134544
 C         -58.957870     -161.921310      -52.795681
 C         -60.783112     -162.197311      -54.352146
 C         -59.926647     -161.920761      -51.642826
 C         -61.800220     -161.824600      -53.348488
 C         -61.310078     -162.459213      -52.024879
 H         -58.019306     -161.447037      -52.563301
 H         -58.528992     -162.978470      -52.984550
 H         -61.178841     -161.747971      -55.255077
 H         -60.653763     -163.253586      -54.506302
 H         -60.068424     -160.726318      -51.426872
 H         -59.556664     -162.501328      -50.793777
 H         -62.765755     -162.329651      -53.503128
 H         -61.909084     -160.704498      -53.231884
 H         -61.983467     -162.147995      -51.318092
 H         -61.352821     -163.551025      -52.054276
