20
 generated by VMD
 C         -38.709129     -113.682549      -35.704601
 N         -37.865387     -114.477959      -35.794113
 H         -41.384777     -114.765419      -35.694756
 H         -39.613327     -112.995514      -35.712013
 C         -42.249233     -114.418381      -36.190762
 C         -42.393131     -114.616768      -37.704453
 C         -43.537582     -114.216446      -35.338634
 C         -43.704704     -115.414078      -38.097958
 C         -44.498219     -115.341713      -35.790672
 C         -44.902771     -115.067451      -37.229424
 H         -41.554768     -115.189804      -38.089962
 H         -42.307617     -113.666229      -38.248440
 H         -43.233532     -114.379684      -34.319248
 H         -43.992790     -113.253296      -35.491295
 H         -43.332047     -116.453583      -38.041416
 H         -43.880589     -115.254044      -39.204491
 H         -45.424080     -115.462517      -35.294708
 H         -44.017059     -116.313179      -35.620281
 H         -45.807640     -115.670189      -37.267731
 H         -45.378204     -113.957703      -37.394066
