20
 generated by VMD
 C         -70.285881     -182.866928      -64.514748
 N         -70.348343     -183.599731      -65.454918
 H         -68.157524     -180.505600      -62.759018
 H         -70.340996     -182.192688      -63.655960
 C         -67.652496     -180.876587      -61.817669
 C         -67.813675     -182.302917      -61.313210
 C         -66.968971     -179.692368      -61.033714
 C         -66.480804     -182.656754      -60.514221
 C         -65.636475     -180.286163      -60.496948
 C         -65.961586     -181.532501      -59.643772
 H         -67.932098     -183.042175      -62.146019
 H         -68.844948     -182.459381      -60.669460
 H         -66.795120     -178.772644      -61.670296
 H         -67.566246     -179.428238      -60.164185
 H         -65.866180     -182.784607      -61.386330
 H         -66.578934     -183.503952      -59.934696
 H         -65.007706     -179.618484      -59.906834
 H         -65.033035     -180.579407      -61.342953
 H         -65.067581     -181.917923      -59.136745
 H         -66.808380     -181.361099      -58.937744
