20
 generated by VMD
 C         -13.139576      -30.292898       -8.317392
 N         -13.815967      -30.327822       -9.194410
 H         -10.838747      -31.033518       -5.153675
 H         -10.947782      -31.765293       -3.501505
 C         -10.852386      -32.032356       -4.627654
 C          -9.457011      -32.672955       -4.784297
 C         -12.015095      -32.986656       -5.014349
 C          -9.303610      -33.974392       -4.077491
 C         -11.734629      -34.278496       -4.222813
 C         -10.367588      -34.929989       -4.552137
 H          -8.628614      -31.967726       -4.439085
 H          -9.196045      -32.769573       -5.863562
 H         -12.941609      -32.485310       -4.796794
 H         -12.018604      -33.092239       -6.079351
 H          -9.346473      -33.876266       -3.006812
 H          -8.291891      -34.318398       -4.148372
 H         -12.520131      -34.987167       -4.360153
 H         -11.806462      -34.117611       -3.098300
 H         -10.300591      -35.914787       -4.172537
 H         -10.238991      -34.972889       -5.642913
