20
 generated by VMD
 C         -78.820396     -209.499039      -77.281166
 N         -79.024773     -209.467407      -76.145004
 H         -78.087891     -210.049194      -73.420113
 H         -78.627419     -209.504715      -78.385895
 C         -78.332619     -210.887817      -72.700722
 C         -77.345184     -211.197678      -71.704552
 C         -79.496849     -211.733047      -73.033348
 C         -77.961899     -211.752548      -70.388977
 C         -80.162415     -212.166794      -71.768272
 C         -79.017281     -212.772476      -70.841583
 H         -76.657074     -210.335327      -71.520859
 H         -76.599876     -211.939606      -72.067200
 H         -80.249489     -211.144974      -73.708344
 H         -79.113029     -212.650299      -73.598709
 H         -78.336334     -210.906128      -69.815910
 H         -77.184235     -212.233124      -69.765060
 H         -80.983025     -212.976562      -71.810989
 H         -80.638763     -211.403152      -71.264633
 H         -79.584579     -213.028793      -69.938232
 H         -78.481117     -213.671570      -71.145370
