20
 generated by VMD
 C         -65.567802     -177.650696      -56.706066
 N         -66.132042     -176.685501      -56.336643
 H         -65.032249     -175.462219      -59.432068
 H         -65.057007     -178.573135      -56.898697
 C         -64.618591     -174.420029      -59.438160
 C         -65.386574     -173.323105      -58.642189
 C         -63.433762     -174.032074      -60.432343
 C         -65.032829     -171.937469      -58.859676
 C         -63.119038     -172.475052      -60.428429
 C         -64.363045     -171.600708      -60.206455
 H         -65.543709     -173.660950      -57.556831
 H         -66.369797     -173.491318      -59.010815
 H         -62.425499     -174.505890      -60.204113
 H         -63.783211     -174.309952      -61.488819
 H         -64.366127     -171.542343      -58.081409
 H         -65.945778     -171.274338      -58.825253
 H         -62.452442     -172.172791      -61.183014
 H         -62.483635     -172.353302      -59.490314
 H         -64.077728     -170.560852      -60.174412
 H         -65.172096     -171.601639      -60.984428
