20
 generated by VMD
 C         -23.429979      -53.223839      -13.095162
 N         -23.211647      -52.619244      -14.076503
 H         -20.448597      -54.849201      -14.301445
 H         -23.512125      -53.490768      -12.178410
 C         -19.494247      -54.726833      -14.091944
 C         -18.937820      -53.331284      -14.067691
 C         -18.569061      -55.919224      -13.925458
 C         -17.876907      -53.171780      -13.038050
 C         -17.141544      -55.651897      -13.422895
 C         -16.721127      -54.179089      -13.318954
 H         -19.793379      -52.705727      -13.858256
 H         -18.359102      -53.118816      -14.974540
 H         -19.074003      -56.571342      -13.256726
 H         -18.557772      -56.429688      -14.872028
 H         -18.290478      -53.366135      -12.037023
 H         -17.451242      -52.162731      -13.022396
 H         -16.505714      -56.217670      -14.085732
 H         -16.910034      -56.121540      -12.440909
 H         -15.946215      -54.006149      -12.492428
 H         -16.278233      -53.918076      -14.302694
