20
 generated by VMD
 C         -11.511387      -39.515072       -7.077790
 N         -10.892418      -39.817623       -6.181231
 H         -13.152180      -40.739792       -9.132236
 H         -14.786235      -39.812260       -9.288857
 C         -14.331891      -40.822575       -9.190764
 C         -14.872116      -41.701382       -8.076726
 C         -14.644874      -41.558834      -10.517273
 C         -16.387520      -41.930775       -8.259974
 C         -16.163530      -41.573689      -10.737406
 C         -16.752712      -42.426647       -9.666329
 H         -14.721451      -41.049801       -7.161451
 H         -14.353752      -42.684952       -7.984521
 H         -14.175322      -41.020546      -11.371077
 H         -14.306053      -42.556274      -10.484401
 H         -16.908564      -40.972816       -8.145884
 H         -16.691725      -42.721622       -7.517995
 H         -16.443186      -41.922131      -11.703005
 H         -16.594748      -40.480721      -10.701960
 H         -17.879822      -42.458794       -9.714262
 H         -16.519573      -43.503502       -9.824112
