20
 generated by VMD
 C          -1.615788      -17.342302        2.039588
 N          -1.595055      -17.244705        3.148236
 H          -5.330441      -17.161106        0.846289
 H          -5.145092      -18.525612       -0.242552
 C          -5.806974      -17.765387        0.076050
 C          -6.229704      -16.807625       -1.003535
 C          -7.012532      -18.622917        0.581782
 C          -7.033108      -17.540535       -2.074312
 C          -7.630830      -19.477240       -0.498236
 C          -8.120954      -18.495029       -1.603401
 H          -5.326030      -16.392086       -1.497410
 H          -6.861145      -15.948724       -0.736182
 H          -6.515176      -19.239714        1.416846
 H          -7.725315      -17.902758        1.053654
 H          -6.264237      -18.134684       -2.574606
 H          -7.476830      -16.769392       -2.736782
 H          -8.404188      -20.132322       -0.092619
 H          -6.805193      -20.037973       -0.877580
 H          -8.518332      -19.016600       -2.472397
 H          -8.907863      -17.879198       -1.150193
