20
 generated by VMD
 C         -56.354156     -149.653793      -46.290081
 N         -56.575726     -150.592850      -45.602314
 H         -53.568130     -147.885925      -47.703041
 H         -55.938541     -148.848068      -46.949200
 C         -53.784607     -147.416824      -48.682568
 C         -52.979607     -147.684784      -49.896549
 C         -54.607288     -146.177780      -48.570534
 C         -53.793232     -147.365402      -51.121361
 C         -55.297832     -145.841003      -49.914631
 C         -54.399998     -146.043106      -51.019539
 H         -52.554905     -148.749588      -50.080273
 H         -52.240757     -146.939957      -49.899456
 H         -55.536247     -146.382553      -47.855988
 H         -54.026463     -145.325241      -48.109955
 H         -54.460041     -148.220184      -51.253513
 H         -53.031738     -147.440689      -51.871582
 H         -55.470917     -144.848557      -49.893272
 H         -56.288013     -146.343658      -50.161266
 H         -54.986382     -145.816711      -51.932400
 H         -53.604328     -145.319412      -51.018234
