20
 generated by VMD
 C         -31.372116      -78.063889      -26.362623
 N         -31.638268      -77.966965      -27.491165
 H         -29.299662      -79.558525      -24.254360
 H         -30.848700      -78.435822      -25.401407
 C         -28.990107      -80.132790      -23.409046
 C         -27.603746      -80.075920      -23.044767
 C         -30.012047      -81.122314      -22.896606
 C         -27.295660      -80.927864      -21.840137
 C         -29.581524      -81.862801      -21.708023
 C         -28.049311      -82.293381      -21.739584
 H         -27.419703      -79.066536      -22.947287
 H         -26.960478      -80.351059      -23.851995
 H         -30.934546      -80.637459      -22.763138
 H         -30.251123      -82.015732      -23.645531
 H         -27.481089      -80.426376      -20.884373
 H         -26.190666      -81.186386      -21.907402
 H         -30.227121      -82.754158      -21.454649
 H         -29.602917      -81.263824      -20.747246
 H         -27.685879      -82.669342      -20.779070
 H         -27.868652      -83.005455      -22.464827
