20
 generated by VMD
 C         -12.401651      -27.592464       -4.611553
 N         -13.137630      -28.071165       -5.324663
 H         -10.964821      -30.518696       -2.886625
 H         -11.040996      -29.030939       -3.685615
 C         -10.332094      -29.837963       -3.387687
 C          -9.583138      -30.568565       -4.532861
 C          -9.309473      -29.208265       -2.446258
 C          -8.744170      -29.504530       -5.356287
 C          -8.355794      -28.216784       -3.185691
 C          -7.661777      -28.900097       -4.374754
 H         -10.302117      -31.180101       -5.071961
 H          -8.875831      -31.282866       -4.132560
 H          -9.872182      -28.643457       -1.649018
 H          -8.646684      -29.943789       -2.004655
 H          -9.346118      -28.723072       -5.792458
 H          -8.209427      -29.888704       -6.234678
 H          -7.692039      -27.856703       -2.379693
 H          -8.990520      -27.384150       -3.501338
 H          -7.008061      -28.161100       -4.924257
 H          -6.923501      -29.681805       -4.147317
