20
 generated by VMD
 C         -11.929132      -26.202126       -0.096017
 N         -12.854425      -26.262280       -0.737248
 H         -10.085634      -26.405405       -3.465906
 H          -9.283628      -25.653873       -4.871892
 C          -9.094324      -26.147171       -3.908042
 C          -8.160033      -27.311087       -4.157367
 C          -8.539692      -25.078190       -3.033477
 C          -6.766630      -26.903749       -4.666697
 C          -7.136878      -24.693014       -3.361049
 C          -6.168971      -25.769865       -3.788337
 H          -8.552770      -27.992878       -4.846209
 H          -8.072827      -27.825571       -3.209699
 H          -9.185136      -24.216898       -3.033053
 H          -8.381688      -25.477673       -1.994740
 H          -6.863527      -26.502024       -5.677813
 H          -6.107962      -27.788034       -4.785767
 H          -6.753139      -24.073200       -2.527572
 H          -7.142978      -23.960608       -4.161017
 H          -5.261400      -25.347498       -4.234679
 H          -5.730816      -26.270754       -2.884636
