20
 generated by VMD
 C         -76.624489     -203.172134      -66.650803
 N         -77.380928     -203.656967      -65.903221
 H         -75.586578     -200.701035      -68.850342
 H         -75.931839     -202.679199      -67.274239
 C         -74.762878     -199.961990      -69.019035
 C         -74.886185     -198.433456      -68.691658
 C         -73.571739     -200.401260      -69.736969
 C         -73.415787     -197.717987      -68.826118
 C         -73.324333     -199.364731      -70.819771
 C         -72.733810     -198.071915      -70.169403
 H         -75.137505     -198.398163      -67.711464
 H         -75.595055     -197.919434      -69.322571
 H         -72.706848     -200.686935      -69.206200
 H         -73.732727     -201.381790      -70.234512
 H         -72.813133     -198.160767      -67.979927
 H         -73.313019     -196.653214      -68.579285
 H         -74.303192     -199.058945      -71.266853
 H         -72.637360     -199.844269      -71.503990
 H         -71.716087     -198.221146      -69.920547
 H         -72.795135     -197.036957      -70.730721
