20
 generated by VMD
 C         -74.259537     -200.353027      -66.347450
 N         -73.246056     -200.903458      -66.350876
 H         -76.560211     -198.211716      -68.528236
 H         -75.167603     -199.737793      -66.361633
 C         -75.445198     -198.199570      -68.552734
 C         -74.692390     -197.114426      -67.551254
 C         -74.517509     -199.035110      -69.372520
 C         -73.652878     -196.387497      -68.251839
 C         -73.204727     -198.296158      -69.812981
 C         -72.596451     -197.410660      -68.727364
 H         -74.367134     -197.634995      -66.647400
 H         -75.510345     -196.472778      -67.193413
 H         -74.183510     -199.978638      -68.834648
 H         -75.163895     -199.456207      -70.251030
 H         -73.276672     -195.585815      -67.585342
 H         -74.041351     -195.784622      -69.162743
 H         -73.286713     -197.673370      -70.722519
 H         -72.424469     -199.131088      -69.969826
 H         -72.213356     -197.948517      -67.921181
 H         -71.723625     -196.854858      -69.234337
