20
 generated by VMD
 C          -6.891281      -23.327337        3.241216
 N          -6.491503      -22.652729        2.423961
 H          -7.388392      -22.206358       -0.320481
 H          -8.660809      -22.107117       -1.532759
 C          -7.583942      -21.864004       -1.368183
 C          -6.751739      -22.623026       -2.339715
 C          -7.422702      -20.363474       -1.553493
 C          -7.080164      -22.168505       -3.725112
 C          -7.782863      -19.884665       -2.968135
 C          -6.877632      -20.675480       -3.961858
 H          -7.059469      -23.646168       -2.223763
 H          -5.656921      -22.469000       -2.125908
 H          -8.096656      -19.846527       -0.912576
 H          -6.434316      -19.976507       -1.268408
 H          -8.059097      -22.475912       -4.106606
 H          -6.359562      -22.678280       -4.345353
 H          -7.586055      -18.811577       -3.051861
 H          -8.834181      -19.971077       -3.285313
 H          -7.281910      -20.447880       -4.974840
 H          -5.800584      -20.356522       -3.931396
