20
 generated by VMD
 C         -41.070393     -119.296600      -34.775158
 N         -40.127972     -119.132904      -35.398697
 H         -43.528011     -117.232742      -36.368416
 H         -41.825684     -119.574074      -34.133411
 C         -43.950439     -117.467072      -37.290596
 C         -43.012825     -117.773315      -38.389252
 C         -45.267048     -116.856407      -37.595585
 C         -43.659191     -118.452278      -39.609280
 C         -45.952614     -117.494316      -38.804024
 C         -45.042736     -117.746902      -39.951691
 H         -42.260380     -118.467278      -37.985023
 H         -42.616909     -116.858513      -38.908226
 H         -45.898258     -117.008926      -36.678745
 H         -45.151661     -115.789513      -37.653954
 H         -43.988209     -119.518303      -39.552216
 H         -43.057148     -118.368210      -40.551411
 H         -46.703026     -116.731445      -39.089008
 H         -46.715549     -118.363152      -38.655529
 H         -45.514011     -118.184708      -40.853210
 H         -44.839916     -116.796967      -40.350994
