20
 generated by VMD
 C         -31.862585      -76.340897      -24.583834
 N         -31.689697      -76.820961      -25.641666
 H         -29.001801      -76.807465      -22.303135
 H         -32.252151      -75.908470      -23.539587
 C         -28.523325      -77.741570      -22.211857
 C         -27.542957      -78.083252      -23.284670
 C         -28.463270      -78.656822      -20.967628
 C         -26.211187      -78.215134      -22.686420
 C         -27.106529      -78.726433      -20.395823
 C         -26.105913      -79.190079      -21.511059
 H         -27.477455      -77.305824      -24.110233
 H         -27.944273      -78.945290      -23.869932
 H         -29.220514      -78.356812      -20.260540
 H         -28.895542      -79.686752      -21.290705
 H         -25.870836      -77.181274      -22.382782
 H         -25.561888      -78.674156      -23.460365
 H         -27.041912      -79.565186      -19.608696
 H         -26.814299      -77.675491      -19.930740
 H         -25.157412      -79.025070      -21.081814
 H         -26.236668      -80.260483      -21.863962
