20
 generated by VMD
 C         -11.331432      -34.177944       -8.686517
 N         -10.739296      -35.103046       -8.681349
 H         -11.919698      -37.295815       -7.625113
 H         -12.929488      -36.951359       -6.318597
 C         -12.840681      -37.666286       -7.111141
 C         -12.486389      -39.116585       -6.718207
 C         -13.995393      -37.646885       -8.105969
 C         -13.702046      -39.809978       -6.051024
 C         -15.255775      -38.260994       -7.440252
 C         -14.981527      -39.747997       -6.938091
 H         -11.537766      -39.107094       -6.160515
 H         -12.242562      -39.675137       -7.614683
 H         -14.263619      -36.651981       -8.523707
 H         -13.746802      -38.163692       -8.980526
 H         -13.864263      -39.379963       -5.069545
 H         -13.515990      -40.835239       -5.791973
 H         -16.157940      -38.269619       -8.131997
 H         -15.544740      -37.672134       -6.590729
 H         -15.834421      -40.041451       -6.301015
 H         -14.895152      -40.487896       -7.748938
