20
 generated by VMD
 C         -30.742319      -75.622803      -23.244267
 N         -30.907188      -75.903809      -24.401136
 H         -29.297768      -78.756599      -21.762974
 H         -30.792412      -75.267609      -22.252281
 C         -28.358402      -78.290237      -21.745872
 C         -27.533415      -78.250885      -23.000681
 C         -27.864223      -77.811829      -20.448572
 C         -26.630838      -77.083092      -23.151442
 C         -26.743399      -76.705330      -20.581593
 C         -25.844381      -76.767891      -21.815048
 H         -28.094460      -78.484711      -23.913572
 H         -26.969357      -79.155746      -23.079542
 H         -28.757107      -77.481239      -19.806156
 H         -27.483654      -78.735519      -19.959066
 H         -27.193699      -76.160240      -23.319996
 H         -26.045626      -77.131798      -24.070736
 H         -26.437405      -76.512238      -19.529709
 H         -27.327797      -75.793167      -20.873655
 H         -25.269518      -75.775230      -21.963985
 H         -25.198439      -77.589722      -21.660301
