20
 generated by VMD
 C         -56.526588     -150.141922      -47.637276
 N         -57.647514     -150.352600      -47.863018
 H         -53.618496     -148.567291      -47.413113
 H         -55.503193     -149.824051      -47.534317
 C         -53.692814     -148.030609      -48.348579
 C         -53.031548     -148.425049      -49.660641
 C         -54.440590     -146.691330      -48.617542
 C         -54.148766     -148.749222      -50.670227
 C         -55.612400     -146.829605      -49.673786
 C         -54.952179     -147.437668      -50.949089
 H         -52.392376     -149.359680      -49.381603
 H         -52.425999     -147.580246      -50.113209
 H         -54.786278     -146.020538      -47.827156
 H         -53.650028     -146.155914      -49.239075
 H         -54.834908     -149.399857      -50.081993
 H         -53.872761     -149.223663      -51.607716
 H         -55.993359     -145.894058      -49.810238
 H         -56.320293     -147.567047      -49.188679
 H         -55.705311     -147.547775      -51.700268
 H         -54.288033     -146.667725      -51.387218
