20
 generated by VMD
 C          -4.208499      -20.799114        2.928389
 N          -4.743554      -19.829813        2.817485
 H          -5.031897      -18.993845       -0.397357
 H          -5.837439      -20.584349       -0.387352
 C          -5.855663      -19.557749       -0.805648
 C          -5.670747      -19.722876       -2.296650
 C          -7.269798      -18.989117       -0.478067
 C          -6.818519      -20.427391       -3.051628
 C          -8.393407      -19.741343       -1.285304
 C          -8.166487      -19.835154       -2.760461
 H          -4.777815      -20.282089       -2.509047
 H          -5.645435      -18.706062       -2.706786
 H          -7.416291      -19.227791        0.678990
 H          -7.280777      -17.865175       -0.716284
 H          -6.853049      -21.460228       -2.774546
 H          -6.579350      -20.430155       -4.129264
 H          -9.317775      -19.227152       -1.040693
 H          -8.447983      -20.733517       -0.888526
 H          -8.930296      -20.411179       -3.239300
 H          -8.100048      -18.807785       -3.162856
