20
 generated by VMD
 C         -37.083416      -98.056770      -26.085646
 N         -35.995975      -98.430138      -26.296440
 H         -36.391880      -95.257690      -28.619116
 H         -38.098423      -97.712425      -25.672388
 C         -35.524361      -95.420044      -29.275520
 C         -35.725956      -96.336960      -30.443031
 C         -34.304008      -94.626297      -29.108553
 C         -35.238476      -95.613434      -31.713753
 C         -33.861496      -93.980385      -30.457739
 C         -33.789696      -94.896263      -31.640453
 H         -36.808617      -96.675262      -30.636213
 H         -35.115337      -97.220032      -30.228765
 H         -34.452751      -93.849548      -28.299601
 H         -33.516006      -95.315422      -28.748205
 H         -36.046902      -94.830109      -31.961201
 H         -35.170486      -96.256081      -32.582939
 H         -32.860046      -93.534172      -30.320314
 H         -34.696590      -93.218277      -30.685717
 H         -33.485237      -94.517006      -32.581745
 H         -32.977966      -95.710869      -31.409170
