20
 generated by VMD
 C         -29.513687      -89.623810      -25.062527
 N         -29.205006      -89.097321      -26.051676
 H         -31.998173      -90.610825      -26.755949
 H         -29.875425      -89.928505      -24.031847
 C         -32.859135      -90.467133      -27.422338
 C         -34.138096      -90.961174      -26.993805
 C         -32.839619      -89.537209      -28.553717
 C         -34.851299      -89.734589      -26.356842
 C         -33.576164      -88.306000      -28.143936
 C         -34.888149      -88.528748      -27.348131
 H         -34.128826      -91.833649      -26.358496
 H         -34.709583      -91.223373      -27.900141
 H         -31.810345      -89.571228      -28.880283
 H         -33.330959      -90.028030      -29.365379
 H         -34.254578      -89.479355      -25.523262
 H         -35.846268      -89.968399      -26.127213
 H         -33.773838      -87.750984      -29.026661
 H         -33.023537      -87.711418      -27.414621
 H         -35.340042      -87.572517      -26.838120
 H         -35.659946      -88.841888      -28.208504
