20
 generated by VMD
 C         -40.907135     -104.078629      -36.625858
 N         -41.530785     -105.011566      -36.296848
 H         -39.178616     -104.750511      -33.611042
 H         -40.178192     -103.408432      -37.122414
 C         -38.729977     -105.677155      -33.112053
 C         -37.410477     -105.839615      -32.524426
 C         -39.411922     -106.991585      -33.388336
 C         -37.487495     -106.764442      -31.313217
 C         -39.542152     -107.912987      -32.181988
 C         -38.111267     -108.115936      -31.478136
 H         -36.953369     -104.923767      -32.190907
 H         -36.702751     -106.123604      -33.363625
 H         -40.354652     -107.114731      -33.830231
 H         -38.728333     -107.521927      -34.138577
 H         -37.976673     -106.171890      -30.549086
 H         -36.474846     -106.761360      -30.860844
 H         -39.981422     -108.803871      -32.446335
 H         -40.140739     -107.421684      -31.420132
 H         -38.241653     -108.519104      -30.412395
 H         -37.578369     -108.858124      -31.961422
