20
 generated by VMD
 C         -57.116913     -163.869980      -56.723782
 N         -57.264660     -162.876419      -57.262165
 H         -60.062561     -164.112335      -54.405102
 H         -57.118721     -164.797699      -56.216763
 C         -60.905720     -164.741653      -54.584122
 C         -61.667995     -165.350815      -53.485214
 C         -61.434685     -164.510071      -55.938751
 C         -62.961510     -164.554916      -53.379471
 C         -62.825790     -163.827896      -55.805157
 C         -63.762531     -164.501297      -54.752823
 H         -61.021435     -165.545441      -52.598381
 H         -61.920006     -166.436188      -53.781731
 H         -60.674244     -163.997055      -56.599499
 H         -61.692543     -165.369705      -56.479305
 H         -62.609959     -163.552643      -53.066521
 H         -63.603569     -165.013077      -52.551575
 H         -63.253769     -163.777512      -56.873692
 H         -62.753563     -162.586639      -55.571392
 H         -64.602425     -163.767593      -54.645348
 H         -64.105324     -165.496155      -55.125282
