20
 generated by VMD
 C         -58.673939     -160.106857      -56.980980
 N         -58.460335     -159.942215      -58.153881
 H         -58.671783     -162.668045      -54.999660
 H         -58.971817     -160.276520      -55.946735
 C         -59.411732     -162.309692      -54.294430
 C         -59.149876     -162.395966      -52.784733
 C         -60.933472     -162.562607      -54.638935
 C         -60.164761     -162.142136      -51.752853
 C         -61.972672     -161.901779      -53.643471
 C         -61.618229     -162.474930      -52.244946
 H         -58.303802     -161.758270      -52.555973
 H         -58.863438     -163.459351      -52.704472
 H         -61.053589     -162.085983      -55.688629
 H         -61.141411     -163.605972      -54.592640
 H         -60.311394     -161.048691      -51.464619
 H         -59.861752     -162.587921      -50.711506
 H         -62.958004     -162.124893      -54.126888
 H         -62.049866     -160.782623      -53.559017
 H         -62.368244     -162.116150      -51.450016
 H         -61.726299     -163.588852      -52.273262
