20
 generated by VMD
 C          -9.498550      -24.997742        0.656109
 N         -10.409392      -25.462097        1.115627
 H          -6.260945      -23.278498       -0.826374
 H          -7.767955      -22.656548       -1.104369
 C          -6.955235      -23.099134       -1.639590
 C          -7.282359      -24.473965       -2.272615
 C          -6.408407      -22.139814       -2.602955
 C          -8.140016      -24.353769       -3.587643
 C          -7.201237      -22.050930       -3.881204
 C          -7.503062      -23.358915       -4.512176
 H          -7.934892      -25.201588       -1.620482
 H          -6.313870      -24.885633       -2.571683
 H          -6.318083      -21.144440       -2.115134
 H          -5.396267      -22.440317       -2.901955
 H          -9.097725      -23.963366       -3.283979
 H          -8.144174      -25.298124       -4.152811
 H          -6.628582      -21.429884       -4.543252
 H          -8.144721      -21.537622       -3.703282
 H          -8.136285      -23.227980       -5.420330
 H          -6.573712      -23.820547       -4.941465
