20
 generated by VMD
 C          -1.736895      -16.705473        2.798066
 N          -2.132597      -15.756161        2.369401
 H          -4.221917      -16.024372       -0.241636
 H          -4.921180      -17.204765       -1.411459
 C          -5.075508      -16.630424       -0.507990
 C          -6.374240      -15.870902       -0.797077
 C          -5.271786      -17.590620        0.626159
 C          -7.457571      -16.830475       -1.237010
 C          -6.444845      -18.547773        0.376539
 C          -7.724699      -17.842421       -0.067473
 H          -6.196372      -15.159865       -1.590690
 H          -6.695399      -15.350342        0.111550
 H          -4.327096      -18.114548        0.886877
 H          -5.642212      -16.955774        1.458444
 H          -7.152321      -17.385563       -2.176728
 H          -8.426976      -16.337244       -1.526569
 H          -6.625002      -19.035997        1.371384
 H          -6.093179      -19.355330       -0.283048
 H          -8.407009      -18.602043       -0.441384
 H          -8.307173      -17.328081        0.680481
