20
 generated by VMD
 C         -65.321709     -176.960007      -56.153263
 N         -65.846069     -177.364960      -55.181580
 H         -64.244415     -174.911499      -59.293236
 H         -64.724648     -176.667023      -57.046982
 C         -64.190041     -173.812210      -59.402412
 C         -65.264915     -172.923065      -58.887089
 C         -63.652267     -173.357224      -60.695610
 C         -64.630486     -171.443649      -58.585827
 C         -63.192051     -171.928589      -60.689060
 C         -64.203972     -170.884720      -60.034512
 H         -65.745598     -173.246307      -57.960793
 H         -66.081047     -172.785614      -59.581898
 H         -62.758053     -174.017899      -60.769650
 H         -64.488457     -173.688370      -61.447231
 H         -63.838467     -171.449478      -57.832005
 H         -65.381172     -170.747910      -58.188488
 H         -63.073860     -171.734756      -61.714539
 H         -62.207489     -171.789322      -60.203060
 H         -63.679150     -169.900421      -59.916637
 H         -65.175934     -170.748688      -60.617016
