20
 generated by VMD
 C         -41.765465     -101.445305      -32.763527
 N         -41.459339     -101.599228      -33.880219
 H         -38.750065     -102.922928      -32.566742
 H         -42.080303     -101.392517      -31.761000
 C         -37.830868     -103.237465      -32.059418
 C         -36.663982     -103.070747      -33.059021
 C         -37.510967     -103.642914      -30.657303
 C         -35.391579     -102.554138      -32.357307
 C         -36.430073     -102.700172      -30.090988
 C         -35.145355     -103.010277      -30.924437
 H         -36.838474     -102.384209      -33.887310
 H         -36.397942     -104.069107      -33.511730
 H         -38.482571     -103.633713      -30.033142
 H         -36.982178     -104.651062      -30.534380
 H         -35.522331     -101.509819      -32.291180
 H         -34.536610     -102.752655      -33.008675
 H         -36.077778     -102.867561      -28.998436
 H         -36.848518     -101.717972      -30.122532
 H         -34.315411     -102.350777      -30.594070
 H         -34.883369     -104.045563      -30.927710
