20
 generated by VMD
 C         -78.607803     -209.442749      -76.958481
 N         -77.761490     -209.924149      -77.625038
 H         -79.693832     -211.168518      -73.642532
 H         -79.483337     -209.071899      -76.304886
 C         -79.399529     -212.107864      -73.281136
 C         -78.163109     -212.382614      -72.574188
 C         -80.508255     -213.029984      -72.978455
 C         -78.331810     -212.662460      -71.023445
 C         -80.648010     -213.391510      -71.489471
 C         -79.336029     -213.729828      -70.761307
 H         -77.358643     -211.598969      -72.686142
 H         -77.869804     -213.338242      -73.002907
 H         -81.489853     -212.630356      -73.306725
 H         -80.491982     -213.979065      -73.659752
 H         -78.674309     -211.707535      -70.530197
 H         -77.367271     -213.010452      -70.596962
 H         -81.217644     -214.228729      -71.488144
 H         -81.138367     -212.523285      -70.912407
 H         -79.609245     -213.733109      -69.687752
 H         -78.955246     -214.685959      -71.184074
