20
 generated by VMD
 C         -70.128304     -181.241531      -63.328556
 N         -71.175690     -181.666321      -63.286652
 H         -67.801399     -181.599136      -61.187794
 H         -69.137405     -180.808792      -63.270718
 C         -67.044289     -180.919022      -60.949852
 C         -65.694633     -181.383514      -60.367443
 C         -67.324577     -179.488083      -60.641708
 C         -64.567978     -180.429016      -60.743172
 C         -66.216034     -178.435760      -60.785767
 C         -64.804520     -178.951019      -60.243942
 H         -65.586189     -182.329041      -60.877831
 H         -65.756760     -181.410446      -59.323555
 H         -68.012833     -179.044220      -61.416302
 H         -67.735542     -179.294357      -59.672863
 H         -64.519638     -180.525803      -61.870525
 H         -63.513149     -180.810211      -60.391499
 H         -66.572464     -177.482941      -60.344120
 H         -66.000244     -178.320465      -61.861198
 H         -64.046585     -178.156738      -60.563217
 H         -64.654198     -178.842987      -59.230618
