20
 generated by VMD
 C         -48.027042     -135.174622      -46.185181
 N         -47.619938     -134.858566      -47.249149
 H         -51.154015     -134.694229      -45.561253
 H         -48.093163     -135.250854      -45.072838
 C         -51.215759     -135.562378      -44.816860
 C         -51.781197     -136.824783      -45.461758
 C         -51.231045     -135.396286      -43.328846
 C         -51.300499     -138.007736      -44.688496
 C         -50.800976     -136.582108      -42.591919
 C         -51.523155     -137.904587      -43.176929
 H         -51.456863     -136.867661      -46.468235
 H         -52.933716     -136.715424      -45.477840
 H         -50.418934     -134.658752      -43.185722
 H         -52.132103     -134.876953      -43.041512
 H         -50.262375     -138.361389      -44.899071
 H         -51.903694     -138.928146      -44.876984
 H         -50.957684     -136.447662      -41.516022
 H         -49.696926     -136.736084      -42.835220
 H         -50.998589     -138.727280      -42.816994
 H         -52.617626     -137.735321      -43.046516
