20
 generated by VMD
 C         -60.007717     -156.667923      -55.745403
 N         -60.949345     -156.086151      -56.193222
 H         -59.809837     -157.484909      -53.045799
 H         -59.111824     -157.145035      -55.386383
 C         -58.765507     -157.970932      -52.899807
 C         -57.636475     -157.030594      -52.630131
 C         -58.550636     -159.375305      -52.421143
 C         -57.379009     -156.905273      -51.019844
 C         -58.273151     -159.357452      -50.913033
 C         -57.098068     -158.436874      -50.528538
 H         -57.931034     -156.002213      -53.023727
 H         -56.689827     -157.286926      -53.135075
 H         -59.433613     -159.967072      -52.736366
 H         -57.687809     -159.926224      -52.902401
 H         -58.279484     -156.404953      -50.689365
 H         -56.462269     -156.196564      -50.782810
 H         -57.974922     -160.361496      -50.612988
 H         -59.108639     -159.231613      -50.338638
 H         -56.903339     -158.555130      -49.522240
 H         -56.240494     -158.926636      -51.189640
