20
 generated by VMD
 C         -50.620018     -128.905624      -42.440857
 N         -51.341015     -128.182343      -41.851368
 H         -48.068626     -127.916557      -40.782974
 H         -50.149353     -129.744278      -42.970490
 C         -47.086826     -127.556648      -40.847645
 C         -45.928356     -128.200943      -40.085896
 C         -47.053215     -126.113449      -41.216728
 C         -44.667294     -127.996605      -40.853683
 C         -45.768135     -125.839050      -41.883816
 C         -44.535294     -126.435287      -41.276394
 H         -46.054756     -129.337723      -40.017624
 H         -45.836693     -127.899574      -39.068085
 H         -48.025074     -125.976234      -41.876450
 H         -47.046677     -125.479996      -40.299320
 H         -44.683327     -128.606949      -41.827175
 H         -43.776642     -128.145279      -40.095200
 H         -45.590542     -124.804306      -41.879040
 H         -45.782234     -126.165413      -42.912941
 H         -43.632622     -126.384460      -41.872547
 H         -44.246155     -125.936676      -40.324081
