20
 generated by VMD
 C         -50.897457     -129.969482      -44.962376
 N         -51.687141     -129.261566      -45.454594
 H         -48.670593     -129.837982      -43.362553
 H         -50.367565     -130.697678      -44.368477
 C         -48.106461     -129.877777      -42.369404
 C         -47.965462     -131.141434      -41.560673
 C         -47.550297     -128.712891      -41.632923
 C         -46.545723     -131.456497      -41.125259
 C         -46.055389     -128.960648      -41.065277
 C         -45.918262     -130.291107      -40.282734
 H         -48.269566     -131.875992      -42.195210
 H         -48.689869     -131.188965      -40.667286
 H         -47.404018     -127.748940      -42.238102
 H         -48.214008     -128.475174      -40.820404
 H         -45.859749     -131.850418      -41.894962
 H         -46.291172     -132.238419      -40.368004
 H         -45.774017     -128.194336      -40.377182
 H         -45.403805     -128.939285      -41.964676
 H         -44.857044     -130.434402      -40.014458
 H         -46.595043     -130.269684      -39.386604
