20
 generated by VMD
 C         -48.486557     -126.203918      -38.693909
 N         -49.067429     -127.224823      -38.553013
 H         -46.244160     -123.580505      -38.513199
 H         -47.947319     -125.274971      -38.803436
 C         -45.452168     -123.363701      -39.177193
 C         -44.476608     -124.342537      -39.563694
 C         -45.654881     -122.140945      -40.041336
 C         -44.350891     -124.557777      -41.104099
 C         -45.409348     -122.415573      -41.554596
 C         -44.206539     -123.175255      -41.740993
 H         -44.616936     -125.262199      -39.050316
 H         -43.441677     -123.921616      -39.289169
 H         -46.604416     -121.642311      -39.872860
 H         -44.812748     -121.499847      -39.914707
 H         -45.304619     -125.034370      -41.393131
 H         -43.410942     -125.126816      -41.428253
 H         -45.405647     -121.475418      -42.159950
 H         -46.259212     -123.039833      -41.758633
 H         -44.004833     -123.159447      -42.824898
 H         -43.404869     -122.686913      -41.202328
