20
 generated by VMD
 C         -13.946695      -43.355190       -6.576198
 N         -13.139309      -43.684895       -5.893603
 H         -15.140741      -45.158253       -8.931164
 H         -14.320871      -43.894035       -9.881763
 C         -15.223697      -44.548523       -9.829180
 C         -16.406242      -43.571033       -9.565425
 C         -15.416587      -45.395950      -11.049641
 C         -16.797504      -42.793079      -10.823241
 C         -16.021187      -44.640656      -12.269865
 C         -17.242077      -43.759407      -11.898099
 H         -16.132338      -42.898251       -8.765207
 H         -17.247534      -44.198437       -9.338981
 H         -14.455213      -45.839996      -11.349339
 H         -16.088573      -46.209770      -10.861940
 H         -15.927728      -42.206486      -11.184573
 H         -17.608986      -42.110191      -10.554656
 H         -16.219656      -45.451027      -12.908392
 H         -15.295266      -44.001602      -12.796053
 H         -17.704851      -43.180595      -12.755851
 H         -18.048843      -44.446308      -11.507128
