20
 generated by VMD
 C         -79.363823     -204.692673      -70.816399
 N         -80.364182     -205.215866      -70.742645
 H         -76.825447     -203.323624      -69.213066
 H         -78.337502     -204.269882      -70.679100
 C         -75.813576     -203.067215      -69.308922
 C         -75.653427     -201.941299      -70.285034
 C         -74.819016     -204.082642      -68.888237
 C         -74.228851     -201.574387      -70.499580
 C         -73.370186     -203.636597      -69.123955
 C         -73.134506     -202.671219      -70.241768
 H         -76.291710     -201.015106      -70.059540
 H         -76.023209     -202.294312      -71.229630
 H         -75.036682     -204.384384      -67.839485
 H         -75.024826     -205.141205      -69.267670
 H         -74.042229     -200.740906      -69.778229
 H         -74.121696     -201.102325      -71.493729
 H         -72.802299     -204.541702      -69.379204
 H         -72.849670     -203.459473      -68.074409
 H         -72.093529     -202.179398      -70.139641
 H         -72.912933     -203.212677      -71.220528
