20
 generated by VMD
 C         -69.838928     -184.699158      -66.441048
 N         -69.008972     -184.418839      -67.171654
 H         -69.586853     -183.390060      -63.401043
 H         -70.678017     -184.918472      -65.784157
 C         -69.129021     -183.526932      -62.447510
 C         -69.386131     -184.507126      -61.350201
 C         -68.159538     -182.375229      -62.054119
 C         -68.178207     -185.098175      -60.598537
 C         -66.931747     -183.005234      -61.344559
 C         -67.190369     -183.993103      -60.206142
 H         -69.875488     -185.321777      -61.973415
 H         -70.041527     -184.113022      -60.594547
 H         -67.910950     -181.775513      -62.875977
 H         -68.659683     -181.736618      -61.276287
 H         -67.534126     -185.759216      -61.240059
 H         -68.552979     -185.712402      -59.746918
 H         -66.412834     -182.106964      -61.018631
 H         -66.213654     -183.527069      -62.029991
 H         -66.296761     -184.463547      -59.822762
 H         -67.590614     -183.495651      -59.380993
