20
 generated by VMD
 C         -50.269409     -145.224792      -45.001854
 N         -49.858761     -144.673737      -44.107117
 H         -53.078182     -143.021439      -45.712757
 H         -50.516357     -145.678513      -45.971306
 C         -53.382767     -142.853821      -46.757549
 C         -52.529305     -142.850372      -48.098629
 C         -54.721603     -142.085312      -46.847034
 C         -53.367165     -143.066208      -49.357273
 C         -55.390968     -142.247406      -48.130707
 C         -54.513618     -142.090851      -49.352196
 H         -51.713501     -143.478775      -47.926636
 H         -51.954521     -141.899948      -48.180000
 H         -55.382893     -142.484894      -46.084602
 H         -54.349281     -141.049606      -46.728626
 H         -53.800804     -144.005127      -49.401978
 H         -52.713688     -142.940720      -50.170982
 H         -56.200901     -141.531586      -48.162865
 H         -56.009754     -143.203400      -48.059834
 H         -55.084549     -142.247009      -50.263321
 H         -54.274303     -141.084976      -49.526402
