20
 generated by VMD
 C         -11.327488      -33.801132       -9.280527
 N         -11.313131      -34.150318       -8.247270
 H         -11.443866      -37.341785       -8.045519
 H         -11.958325      -36.764835       -6.428956
 C         -12.274617      -37.438496       -7.275910
 C         -12.202877      -38.793888       -6.593194
 C         -13.602971      -37.186211       -7.900603
 C         -13.265239      -38.934929       -5.546906
 C         -14.788746      -37.425224       -6.932652
 C         -14.653886      -38.722183       -6.138956
 H         -11.195258      -38.894592       -6.169817
 H         -12.261131      -39.597702       -7.304484
 H         -13.714249      -36.099995       -8.260946
 H         -13.749329      -37.728306       -8.827602
 H         -13.040790      -38.120132       -4.849544
 H         -13.241909      -39.790012       -4.926025
 H         -15.817165      -37.423836       -7.513052
 H         -14.788896      -36.584694       -6.246964
 H         -15.488172      -38.798367       -5.401240
 H         -14.756972      -39.559956       -6.869019
