20
 generated by VMD
 C         -41.416824     -102.359337      -34.432575
 N         -41.195797     -101.841980      -35.425217
 H         -39.601875     -104.138191      -32.314297
 H         -41.805008     -102.727249      -33.462654
 C         -38.609680     -104.238098      -32.028309
 C         -37.527439     -103.852119      -32.981953
 C         -38.172920     -105.346016      -30.986113
 C         -36.228615     -103.598145      -32.125519
 C         -36.884052     -104.958611      -30.268335
 C         -35.741554     -104.589211      -31.247860
 H         -37.825981     -102.962906      -33.631359
 H         -37.298325     -104.601463      -33.713490
 H         -39.019722     -105.495773      -30.161665
 H         -38.095554     -106.273323      -31.503605
 H         -36.555443     -102.700821      -31.602980
 H         -35.335396     -103.311752      -32.665058
 H         -36.618504     -105.910408      -29.714962
 H         -36.958160     -104.093124      -29.509291
 H         -34.870522     -104.348724      -30.699553
 H         -35.391560     -105.481552      -31.810362
