20
 generated by VMD
 C          -7.981739      -23.562586        2.068322
 N          -7.695567      -23.455435        3.143840
 H          -8.936239      -23.527056       -1.608310
 H          -9.444324      -22.610069       -2.858653
 C          -8.531789      -22.928534       -2.389977
 C          -7.751676      -23.702953       -3.387070
 C          -7.782171      -21.748095       -1.801176
 C          -7.003970      -22.897699       -4.383254
 C          -7.005901      -20.926556       -2.859834
 C          -6.155413      -21.888412       -3.700696
 H          -8.396326      -24.319580       -3.939699
 H          -7.024598      -24.333019       -2.823962
 H          -8.446901      -21.128798       -1.199787
 H          -7.043158      -22.155149       -1.065468
 H          -7.779729      -22.410637       -4.976662
 H          -6.354305      -23.624758       -4.892034
 H          -6.403095      -20.198982       -2.319791
 H          -7.731765      -20.418495       -3.515301
 H          -5.553743      -21.341702       -4.445128
 H          -5.386205      -22.452814       -3.107758
