20
 generated by VMD
 C         -65.471252     -177.581543      -56.594269
 N         -66.116875     -176.805115      -55.995899
 H         -64.316872     -175.180786      -58.731602
 H         -64.839340     -178.337830      -57.097076
 C         -64.341423     -174.188858      -59.194336
 C         -65.477516     -173.287521      -58.924358
 C         -63.645184     -173.873077      -60.522346
 C         -64.884735     -171.884247      -58.751957
 C         -63.127571     -172.328293      -60.537365
 C         -64.307632     -171.345612      -60.142715
 H         -66.141655     -173.650299      -58.130478
 H         -66.110870     -173.515564      -59.818829
 H         -62.620850     -174.489105      -60.652012
 H         -64.279655     -174.132355      -61.429798
 H         -64.022934     -171.825012      -57.974976
 H         -65.640236     -171.096069      -58.467747
 H         -62.585461     -172.093170      -61.505283
 H         -62.348400     -172.245758      -59.832699
 H         -63.851780     -170.333633      -59.955780
 H         -65.150948     -171.197205      -60.835751
