20
 generated by VMD
 C         -59.398235     -169.009674      -55.851242
 N         -59.501175     -168.621002      -54.741848
 H         -62.964672     -170.034576      -56.048073
 H         -59.219479     -169.258575      -56.892242
 C         -62.996632     -169.042099      -56.475861
 C         -62.795719     -168.700455      -57.922688
 C         -63.173355     -167.873901      -55.620186
 C         -63.697453     -167.630066      -58.498329
 C         -64.187035     -166.772629      -56.190071
 C         -63.552425     -166.368393      -57.593121
 H         -63.025555     -169.691437      -58.547234
 H         -61.827663     -168.380539      -58.120255
 H         -63.571960     -168.258865      -54.613960
 H         -62.115665     -167.506470      -55.378712
 H         -64.747841     -167.970322      -58.619659
 H         -63.371422     -167.386490      -59.548683
 H         -64.067429     -165.935501      -55.607918
 H         -65.116585     -167.228973      -56.184158
 H         -64.187653     -165.522705      -58.065865
 H         -62.493954     -166.012299      -57.631237
