20
 generated by VMD
 C         -12.326589      -27.203485       -2.667664
 N         -13.291508      -27.657303       -2.304521
 H         -10.624411      -26.934439       -3.949222
 H          -9.417312      -26.453745       -5.138607
 C          -9.527865      -26.927593       -4.211290
 C          -8.990882      -28.369694       -4.488241
 C          -8.845379      -26.223740       -3.092566
 C          -7.479653      -28.407267       -4.622231
 C          -7.312503      -26.280203       -3.109779
 C          -6.769466      -27.650408       -3.481416
 H          -9.430694      -28.783335       -5.437981
 H          -9.323287      -28.955257       -3.644795
 H          -9.094325      -25.158728       -3.085885
 H          -9.148764      -26.491726       -2.086553
 H          -7.200730      -27.893026       -5.594162
 H          -7.175669      -29.474279       -4.611593
 H          -6.870444      -26.005806       -2.092231
 H          -7.014354      -25.539188       -3.871075
 H          -5.740137      -27.599150       -3.777898
 H          -6.869852      -28.296974       -2.604757
