20
 generated by VMD
 C         -55.106922     -148.585892      -45.184227
 N         -54.578484     -148.797043      -44.194439
 H         -54.343067     -148.058594      -48.606659
 H         -55.562309     -148.261230      -46.090561
 C         -54.312637     -147.163910      -49.159286
 C         -53.203415     -146.896774      -50.142879
 C         -55.119709     -145.974609      -48.520641
 C         -53.329926     -145.668396      -51.002995
 C         -55.173962     -144.792221      -49.578949
 C         -53.734638     -144.487137      -50.163124
 H         -53.111557     -147.710556      -50.810707
 H         -52.222588     -146.935013      -49.640179
 H         -56.078709     -146.194702      -48.185242
 H         -54.577038     -145.563492      -47.675808
 H         -54.133499     -145.762238      -51.702736
 H         -52.421547     -145.354553      -51.449978
 H         -55.323524     -143.902527      -48.938129
 H         -55.941219     -144.917603      -50.241650
 H         -53.944988     -143.687210      -50.914078
 H         -53.002075     -144.412048      -49.326454
