20
 generated by VMD
 C         -60.245968     -172.074326      -55.258144
 N         -59.835106     -173.114746      -54.827538
 H         -62.775005     -170.192123      -56.446423
 H         -60.401783     -171.069855      -55.717411
 C         -63.359779     -169.655762      -57.145237
 C         -62.789062     -168.318466      -57.388954
 C         -64.855354     -169.622589      -57.105938
 C         -63.185326     -167.793518      -58.767712
 C         -65.367981     -169.207886      -58.523861
 C         -64.743790     -167.879272      -58.994617
 H         -61.791553     -168.483887      -57.289207
 H         -63.168606     -167.653687      -56.450012
 H         -65.054665     -170.626862      -56.864635
 H         -65.043739     -168.902176      -56.272987
 H         -62.667545     -168.464752      -59.589676
 H         -62.789528     -166.780258      -58.918861
 H         -66.413261     -169.070511      -58.377831
 H         -65.080261     -169.946136      -59.213867
 H         -64.949242     -167.727890      -60.043858
 H         -65.021454     -166.970276      -58.492283
