20
 generated by VMD
 C          -6.800656      -23.306402        3.209681
 N          -6.756563      -22.684013        2.285832
 H          -7.708547      -22.533278       -0.481883
 H          -8.878250      -22.277731       -1.696791
 C          -7.852071      -22.149563       -1.493259
 C          -7.013628      -22.937395       -2.513481
 C          -7.583299      -20.644487       -1.521785
 C          -7.068215      -22.225580       -3.920173
 C          -7.603785      -19.986084       -2.883511
 C          -6.607529      -20.694380       -3.857331
 H          -7.444364      -23.917034       -2.608520
 H          -5.936037      -22.938889       -2.102390
 H          -8.236553      -20.184124       -0.771617
 H          -6.563323      -20.493752       -1.092572
 H          -8.067490      -22.289528       -4.310011
 H          -6.446773      -22.749172       -4.604996
 H          -7.308971      -18.937880       -2.795969
 H          -8.625643      -19.908722       -3.262802
 H          -6.744744      -20.295687       -4.848952
 H          -5.556063      -20.581673       -3.585595
