20
 generated by VMD
 C         -68.582115     -184.943146      -65.978798
 N         -69.566284     -185.522751      -66.000893
 H         -69.772789     -182.786575      -63.268757
 H         -67.650894     -184.336624      -66.006439
 C         -69.299141     -183.640442      -62.894978
 C         -70.024796     -184.919449      -62.665184
 C         -67.843147     -183.522247      -62.533958
 C         -69.081169     -185.898148      -61.962891
 C         -67.480927     -184.195862      -61.102764
 C         -68.371719     -185.362503      -60.793556
 H         -70.309631     -185.306702      -63.657501
 H         -70.888847     -184.695404      -62.098629
 H         -67.342445     -184.219086      -63.206165
 H         -67.400070     -182.533585      -62.637394
 H         -68.430916     -186.440811      -62.703278
 H         -69.795425     -186.715942      -61.669605
 H         -67.482353     -183.381104      -60.388004
 H         -66.413338     -184.573761      -61.098587
 H         -67.794106     -186.116867      -60.191063
 H         -69.286758     -184.899475      -60.101681
