20
 generated by VMD
 C         -44.721317     -122.346458      -35.974014
 N         -44.497433     -122.507164      -34.815193
 H         -45.237385     -122.831924      -39.689178
 H         -45.033409     -122.099197      -37.044300
 C         -45.001892     -121.801567      -39.737286
 C         -43.526260     -121.377174      -39.529503
 C         -45.977177     -120.744156      -39.497238
 C         -43.286209     -120.134659      -40.425838
 C         -45.770252     -119.515076      -40.485905
 C         -44.322704     -119.050430      -40.167770
 H         -42.900631     -122.297401      -39.877960
 H         -43.267132     -121.195694      -38.410618
 H         -46.962376     -121.046051      -39.660347
 H         -45.827736     -120.549698      -38.431938
 H         -43.226360     -120.253563      -41.454735
 H         -42.355206     -119.674461      -40.076172
 H         -46.518105     -118.710732      -40.189415
 H         -45.948639     -120.010170      -41.519794
 H         -44.125168     -118.242401      -40.855690
 H         -44.201576     -118.655327      -39.176174
