20
 generated by VMD
 C          -7.964116      -23.563400        2.060281
 N          -7.689312      -23.436623        3.144932
 H          -8.901091      -23.594769       -1.574325
 H          -9.441311      -22.569677       -2.875490
 C          -8.546886      -22.912771       -2.396232
 C          -7.746010      -23.706436       -3.384642
 C          -7.773060      -21.742283       -1.790674
 C          -7.006608      -22.899906       -4.397400
 C          -7.020603      -20.926168       -2.838878
 C          -6.139133      -21.887068       -3.694122
 H          -8.368951      -24.309217       -4.035589
 H          -7.054996      -24.297728       -2.808009
 H          -8.487358      -21.165304       -1.163562
 H          -7.063093      -22.080923       -1.015556
 H          -7.783732      -22.491257       -5.026467
 H          -6.393150      -23.643671       -4.935306
 H          -6.443295      -20.167133       -2.317705
 H          -7.714157      -20.375191       -3.481600
 H          -5.530921      -21.331001       -4.378505
 H          -5.389588      -22.403337       -3.089759
