20
 generated by VMD
 C         -79.381638     -209.207245      -76.172401
 N         -79.250351     -209.574112      -77.244667
 H         -77.662056     -209.353760      -73.094971
 H         -79.496979     -208.885544      -75.208458
 C         -77.982857     -209.971085      -72.267311
 C         -76.947968     -210.527222      -71.400612
 C         -79.017662     -210.961868      -72.807564
 C         -77.675430     -211.200623      -70.136864
 C         -79.650032     -211.659256      -71.641907
 C         -78.692558     -212.113892      -70.619034
 H         -76.178566     -209.851532      -71.045799
 H         -76.443405     -211.179474      -72.032372
 H         -79.800873     -210.390717      -73.273598
 H         -78.535278     -211.651871      -73.565849
 H         -78.131187     -210.467087      -69.451988
 H         -76.856316     -211.775253      -69.690331
 H         -80.012115     -212.587921      -71.978142
 H         -80.504959     -211.099548      -71.167709
 H         -79.174850     -212.603287      -69.750633
 H         -78.175797     -213.037369      -71.022972
