20
 generated by VMD
 C         -41.921177     -120.268021      -34.598274
 N         -42.382374     -121.310089      -34.246086
 H         -43.683929     -120.154800      -37.623070
 H         -41.578537     -119.342857      -35.026466
 C         -43.929268     -119.257568      -38.209332
 C         -43.112953     -118.968987      -39.383514
 C         -45.222759     -118.564156      -38.125481
 C         -43.934498     -118.818657      -40.760792
 C         -46.061726     -118.533409      -39.369324
 C         -45.232616     -118.026489      -40.607471
 H         -42.355259     -119.751038      -39.670677
 H         -42.446377     -118.040321      -39.370586
 H         -45.841434     -118.978783      -37.232792
 H         -44.999805     -117.486572      -37.989807
 H         -44.287834     -119.800453      -41.093960
 H         -43.174255     -118.367683      -41.496029
 H         -46.955914     -118.095711      -39.275326
 H         -46.225994     -119.551025      -39.627735
 H         -45.731926     -118.012741      -41.603363
 H         -45.043774     -116.952461      -40.417454
