20
 generated by VMD
 C         -20.320093      -57.291027      -16.715868
 N         -19.428232      -56.574547      -16.814566
 H         -22.901415      -59.847919      -17.795767
 H         -21.338167      -57.904228      -16.866137
 C         -22.503088      -60.455830      -16.887177
 C         -23.585026      -60.704594      -15.926447
 C         -21.175953      -61.199570      -16.706299
 C         -23.186054      -60.986118      -14.529248
 C         -21.078814      -62.126385      -15.537024
 C         -22.099646      -61.997414      -14.350860
 H         -24.007080      -61.645706      -16.378517
 H         -24.380253      -59.952656      -15.929967
 H         -21.016653      -61.772923      -17.631804
 H         -20.405909      -60.425457      -16.704348
 H         -24.078096      -61.181404      -13.915720
 H         -22.699581      -60.105942      -14.207493
 H         -20.031416      -61.998138      -15.231637
 H         -20.975546      -63.216892      -15.791167
 H         -22.469477      -63.003059      -14.095898
 H         -21.481289      -61.532181      -13.594461
