20
 generated by VMD
 C         -40.432800     -104.490166      -36.227520
 N         -39.512913     -104.876091      -36.780525
 H         -40.723778     -107.372566      -34.582912
 H         -41.094357     -104.069740      -35.461056
 C         -39.883007     -107.793518      -34.039879
 C         -38.841129     -106.827492      -33.592800
 C         -39.945503     -109.191040      -33.544704
 C         -38.537411     -107.053032      -32.077496
 C         -39.917534     -109.157745      -32.016174
 C         -38.708168     -108.432564      -31.517990
 H         -39.122005     -105.832634      -33.758659
 H         -38.020638     -107.217506      -34.156242
 H         -40.761299     -109.593071      -34.074917
 H         -39.045856     -109.646118      -34.005852
 H         -39.224598     -106.434196      -31.504332
 H         -37.625469     -106.581940      -31.836008
 H         -39.906113     -110.127937      -31.511375
 H         -40.849663     -108.614418      -31.725452
 H         -38.874813     -108.235046      -30.493210
 H         -37.742935     -109.046036      -31.583084
