20
 generated by VMD
 C         -11.973722      -31.418245       -8.275262
 N         -12.016897      -30.643332       -7.457960
 H         -11.779537      -34.715912       -7.933721
 H         -12.953376      -34.008202       -6.775833
 C         -11.949869      -34.628212       -6.845784
 C         -10.821388      -33.856838       -6.178517
 C         -12.119201      -36.019501       -6.228575
 C         -11.226337      -33.741390       -4.705429
 C         -12.507647      -35.923954       -4.753008
 C         -11.491744      -35.037025       -3.957062
 H         -10.688376      -32.851910       -6.568943
 H          -9.799640      -34.278797       -6.316288
 H         -12.914677      -36.542461       -6.799340
 H         -11.193664      -36.560890       -6.436228
 H         -12.051646      -33.051586       -4.648280
 H         -10.494936      -33.245373       -4.098118
 H         -12.495027      -36.882233       -4.274402
 H         -13.519985      -35.522675       -4.638094
 H         -11.959038      -34.794014       -2.968831
 H         -10.616860      -35.600464       -3.760868
