20
 generated by VMD
 C         -67.487572     -180.010269      -58.305447
 N         -68.491287     -180.114532      -58.866951
 H         -67.370453     -176.501648      -59.801968
 H         -66.560844     -179.851532      -57.734081
 C         -66.275253     -176.094086      -60.081539
 C         -66.020561     -175.211060      -61.313427
 C         -65.078331     -176.699631      -59.397778
 C         -64.795700     -174.290741      -61.193954
 C         -63.994362     -175.599014      -59.249557
 C         -63.574116     -174.955200      -60.605644
 H         -66.929382     -174.529831      -61.295746
 H         -65.851135     -175.747086      -62.310501
 H         -65.531998     -177.004517      -58.492886
 H         -64.752098     -177.601151      -60.016720
 H         -65.002647     -173.541489      -60.453259
 H         -64.587875     -173.992355      -62.157238
 H         -63.029758     -176.058365      -58.861591
 H         -64.230545     -174.921600      -58.444592
 H         -62.769806     -174.226807      -60.325092
 H         -63.275600     -175.827225      -61.365177
