20
 generated by VMD
 C         -37.921181     -114.211327      -35.287281
 N         -38.594105     -115.125015      -35.119457
 H         -41.502975     -115.358833      -36.639835
 H         -37.235226     -113.487587      -35.737568
 C         -42.514046     -115.058525      -36.853378
 C         -42.862381     -114.969009      -38.302025
 C         -43.496059     -114.955231      -35.721714
 C         -44.027309     -115.895882      -38.486168
 C         -44.792927     -115.651733      -36.026207
 C         -45.189423     -115.483353      -37.577671
 H         -41.977604     -115.168411      -38.923615
 H         -43.155060     -113.889526      -38.395676
 H         -43.058647     -115.391174      -34.794491
 H         -43.839458     -113.924187      -35.556503
 H         -43.751892     -116.917229      -38.330986
 H         -44.240627     -115.768440      -39.561607
 H         -45.577621     -115.182602      -35.360912
 H         -44.914680     -116.768646      -35.920784
 H         -46.133286     -116.112206      -37.662441
 H         -45.701691     -114.428490      -37.582973
