20
 generated by VMD
 C         -11.973372      -25.734978       -0.188529
 N         -12.994035      -26.135277       -0.334072
 H          -9.578559      -26.782951       -2.867758
 H          -9.480227      -25.843006       -4.284140
 C          -8.891467      -26.249451       -3.454602
 C          -7.830461      -27.243065       -3.975872
 C          -8.231160      -25.079096       -2.723740
 C          -6.803432      -26.471371       -4.870013
 C          -7.136764      -24.321926       -3.540436
 C          -6.119254      -25.351259       -4.008939
 H          -8.294703      -27.948454       -4.643684
 H          -7.397686      -27.616537       -3.081828
 H          -9.088888      -24.406755       -2.447310
 H          -7.745089      -25.445818       -1.846526
 H          -7.267280      -25.987408       -5.732810
 H          -6.042341      -27.175095       -5.141862
 H          -6.714928      -23.550966       -2.925750
 H          -7.591961      -23.809862       -4.395551
 H          -5.417011      -24.850142       -4.714736
 H          -5.523179      -25.794296       -3.198338
