20
 generated by VMD
 C         -61.498421     -155.299759      -53.551029
 N         -61.984116     -155.295898      -54.567509
 H         -58.418179     -155.021683      -52.086292
 H         -61.026184     -155.485458      -52.605099
 C         -57.467060     -154.923859      -51.612904
 C         -57.329605     -154.486023      -50.254128
 C         -56.291302     -155.056244      -52.478687
 C         -56.036079     -154.835327      -49.545742
 C         -55.049694     -155.553497      -51.678837
 C         -54.893211     -154.677628      -50.360832
 H         -58.263626     -154.751541      -49.632057
 H         -57.365669     -153.309006      -50.290031
 H         -56.411217     -155.831192      -53.230251
 H         -56.076214     -154.161270      -53.013939
 H         -55.999149     -155.878998      -49.026352
 H         -55.972435     -154.189529      -48.604954
 H         -54.065704     -155.489578      -52.284786
 H         -55.132385     -156.657516      -51.534615
 H         -54.023800     -155.039230      -49.951946
 H         -54.734421     -153.613708      -50.606846
