20
 generated by VMD
 C         -56.138237     -149.822281      -47.688541
 N         -57.192390     -150.257675      -47.353851
 H         -53.415936     -148.105286      -47.389217
 H         -55.242760     -149.336227      -48.053158
 C         -53.888355     -147.877274      -48.317215
 C         -53.144154     -148.507721      -49.607830
 C         -54.549282     -146.450729      -48.512745
 C         -54.235420     -148.524948      -50.748623
 C         -55.584557     -146.698532      -49.684917
 C         -54.786022     -147.098022      -50.936771
 H         -52.902287     -149.524658      -49.438496
 H         -52.177380     -147.919434      -49.788513
 H         -55.035824     -146.206848      -47.544621
 H         -53.758957     -145.731644      -48.860779
 H         -55.034721     -149.152802      -50.383358
 H         -54.005363     -148.979568      -51.729630
 H         -56.077053     -145.762054      -50.144604
 H         -56.339115     -147.470825      -49.431301
 H         -55.388008     -147.034943      -51.858860
 H         -53.967033     -146.363419      -51.154400
