20
 generated by VMD
 C         -30.145746      -79.389549      -25.916183
 N         -30.970188      -78.598450      -26.109312
 H         -28.415087      -82.696320      -25.585941
 H         -29.408228      -80.171715      -25.484428
 C         -28.927217      -82.579353      -24.705616
 C         -28.154274      -81.857521      -23.577124
 C         -30.035404      -83.652802      -24.226191
 C         -29.083576      -81.177719      -22.634123
 C         -30.855099      -83.083366      -23.076645
 C         -30.072857      -82.302040      -22.083826
 H         -27.380041      -81.185310      -24.014063
 H         -27.505527      -82.520546      -22.954149
 H         -30.769720      -83.995003      -24.946463
 H         -29.517530      -84.618324      -23.890621
 H         -29.727673      -80.500191      -23.123379
 H         -28.586596      -80.628983      -21.773563
 H         -31.279852      -83.973701      -22.524940
 H         -31.719646      -82.455704      -23.409008
 H         -30.800915      -81.893623      -21.348774
 H         -29.387794      -82.912651      -21.525539
