20
 generated by VMD
 C         -47.882179     -124.847313      -38.409061
 N         -47.097565     -125.636314      -38.759850
 H         -45.250252     -122.896446      -37.714451
 H         -48.745956     -124.258743      -38.361710
 C         -45.122387     -122.933189      -38.791382
 C         -43.965580     -123.647507      -39.405617
 C         -45.716751     -121.841881      -39.568245
 C         -44.318546     -124.173248      -40.843754
 C         -46.045616     -122.214722      -41.049202
 C         -44.923046     -123.001678      -41.672840
 H         -43.732578     -124.502434      -38.793583
 H         -43.090210     -123.060852      -39.436966
 H         -46.656372     -121.463417      -39.113659
 H         -44.967918     -121.043175      -39.478607
 H         -44.836555     -125.130524      -40.934456
 H         -43.415421     -124.417130      -41.295967
 H         -46.310852     -121.328896      -41.666710
 H         -46.923183     -122.872833      -41.262337
 H         -45.345642     -123.469894      -42.516373
 H         -44.163559     -122.365875      -42.093197
