20
 generated by VMD
 C         -19.874722      -60.043896      -17.706850
 N         -19.559502      -59.012680      -18.074417
 H         -22.693630      -59.771946      -15.924749
 H         -20.006735      -61.181549      -17.584951
 C         -23.009600      -60.814800      -15.949550
 C         -23.171171      -61.542614      -17.290270
 C         -23.300167      -61.531414      -14.710457
 C         -22.833860      -63.053215      -17.300451
 C         -22.624817      -62.991611      -14.767631
 C         -23.244673      -63.709229      -15.945592
 H         -22.620514      -61.037136      -18.145023
 H         -24.224810      -61.365383      -17.538933
 H         -22.811239      -61.011372      -13.788021
 H         -24.321365      -61.437798      -14.306921
 H         -21.777994      -63.116604      -17.416040
 H         -23.433201      -63.553509      -18.079792
 H         -22.804522      -63.512589      -13.769357
 H         -21.501860      -62.919418      -14.746783
 H         -23.002975      -64.809090      -16.061338
 H         -24.364201      -63.594219      -15.841365
