20
 generated by VMD
 C         -57.540611     -165.868362      -56.586872
 N         -57.999458     -166.811966      -56.018463
 H         -60.516533     -165.170639      -54.447376
 H         -57.077511     -165.101181      -57.157616
 C         -61.544666     -165.277542      -54.754787
 C         -61.831497     -166.641342      -55.401112
 C         -62.401421     -164.182251      -55.461967
 C         -63.322132     -167.027130      -55.823158
 C         -63.898304     -164.550461      -55.697475
 C         -63.977425     -165.873062      -56.500195
 H         -61.443726     -167.507645      -54.776684
 H         -61.310024     -166.804901      -56.320484
 H         -62.434681     -163.246109      -54.818459
 H         -61.999424     -163.808929      -56.452908
 H         -63.823730     -167.320419      -54.802048
 H         -63.334724     -167.889297      -56.523148
 H         -64.319679     -163.751373      -56.335697
 H         -64.345695     -164.653107      -54.708221
 H         -65.004066     -165.954910      -56.812023
 H         -63.531986     -165.692825      -57.481487
