20
 generated by VMD
 C         -44.735115     -122.371010      -36.033470
 N         -44.376160     -122.271095      -34.935223
 H         -45.258850     -122.800682      -39.439960
 H         -45.011482     -122.557541      -37.035461
 C         -44.990685     -121.795135      -39.617962
 C         -43.527454     -121.371040      -39.588112
 C         -46.042286     -120.763763      -39.499260
 C         -43.259296     -120.050781      -40.328270
 C         -45.731678     -119.512070      -40.332336
 C         -44.301651     -118.966629      -40.130688
 H         -43.003609     -122.295403      -40.007332
 H         -43.198669     -121.248665      -38.489021
 H         -46.973034     -121.179703      -39.777912
 H         -46.107666     -120.435684      -38.435303
 H         -43.225925     -120.176765      -41.348549
 H         -42.318665     -119.571785      -40.017090
 H         -46.418606     -118.653366      -40.149094
 H         -45.771282     -119.955406      -41.400097
 H         -44.208797     -118.221313      -40.961674
 H         -44.119526     -118.426796      -39.200874
