20
 generated by VMD
 C         -19.916872      -60.794704      -17.053154
 N         -19.391996      -59.905582      -17.653397
 H         -23.528391      -60.432476      -16.666466
 H         -20.451078      -61.431526      -16.453659
 C         -23.427525      -61.483459      -16.595413
 C         -23.217108      -62.220692      -17.879316
 C         -23.265375      -61.971916      -15.201143
 C         -23.304178      -63.775761      -17.691061
 C         -23.126850      -63.496384      -15.264441
 C         -23.936543      -64.234268      -16.343430
 H         -22.381655      -61.907211      -18.461630
 H         -24.029417      -62.010403      -18.463604
 H         -22.449940      -61.508900      -14.686385
 H         -24.071522      -61.692062      -14.599131
 H         -22.215860      -64.067322      -17.788961
 H         -23.768112      -64.375397      -18.557108
 H         -23.468311      -63.916801      -14.291133
 H         -22.064709      -63.805855      -15.219964
 H         -23.794685      -65.307411      -16.202656
 H         -24.986168      -64.124817      -16.316238
