20
 generated by VMD
 C         -60.382198     -170.077332      -55.105762
 N         -59.289089     -169.997131      -55.421371
 H         -63.383293     -170.735214      -56.748299
 H         -61.376820     -170.106583      -54.661324
 C         -63.467712     -169.709259      -57.012218
 C         -62.462566     -169.014069      -57.926525
 C         -64.182587     -168.754776      -56.158558
 C         -63.059338     -167.898926      -58.787064
 C         -64.844849     -167.603439      -56.963963
 C         -63.788410     -166.815720      -57.829800
 H         -61.892178     -169.864426      -58.484528
 H         -61.681549     -168.570999      -57.251865
 H         -64.931694     -169.469055      -55.551193
 H         -63.451183     -168.331284      -55.404781
 H         -63.855064     -168.129913      -59.386444
 H         -62.246937     -167.411789      -59.294910
 H         -65.248718     -166.822037      -56.289284
 H         -65.762146     -167.912827      -57.694359
 H         -64.205193     -166.047699      -58.440399
 H         -63.088787     -166.437744      -57.037228
