20
 generated by VMD
 C         -21.249146      -65.174088      -17.161932
 N         -20.629822      -65.653770      -16.298504
 H         -24.800907      -63.516708      -17.965700
 H         -21.998404      -65.073380      -17.832169
 C         -24.664125      -64.508667      -18.250187
 C         -24.461479      -65.043289      -19.628798
 C         -24.937571      -65.517273      -17.104853
 C         -24.319834      -66.560455      -19.738689
 C         -24.877449      -67.032051      -17.351669
 C         -25.310602      -67.366882      -18.888746
 H         -23.633074      -64.359039      -20.006243
 H         -25.342220      -64.766609      -20.263195
 H         -24.200211      -65.330795      -16.186113
 H         -25.958015      -65.308517      -16.759426
 H         -23.338579      -66.838257      -19.525503
 H         -24.386951      -66.758148      -20.786179
 H         -25.442471      -67.598969      -16.655651
 H         -23.834272      -67.238480      -17.110540
 H         -25.108833      -68.424080      -19.073927
 H         -26.359699      -67.137527      -19.184038
