20
 generated by VMD
 C         -40.967957     -101.394806      -32.704643
 N         -42.055367     -101.479317      -33.152340
 H         -38.659039     -103.148155      -32.371716
 H         -40.043152     -100.986465      -32.479362
 C         -37.707283     -102.788254      -31.975523
 C         -36.524776     -102.606895      -32.965412
 C         -37.404877     -102.987686      -30.562401
 C         -35.177757     -102.170753      -32.395657
 C         -36.212662     -102.198471      -30.026880
 C         -34.991943     -102.567558      -30.814363
 H         -36.875935     -102.044182      -33.814201
 H         -36.440460     -103.613342      -33.282463
 H         -38.410393     -102.778091      -30.150110
 H         -37.117741     -104.082787      -30.372551
 H         -35.136799     -101.105835      -32.414429
 H         -34.448799     -102.598465      -33.038395
 H         -35.987991     -102.351120      -28.996441
 H         -36.549007     -101.140427      -30.086716
 H         -34.123936     -102.068108      -30.434942
 H         -34.812801     -103.647346      -30.798090
