20
 generated by VMD
 C         -60.238274     -156.143265      -56.010620
 N         -60.648743     -155.086182      -55.624790
 H         -59.768421     -157.897430      -52.678028
 H         -59.903049     -156.999680      -56.624084
 C         -58.863754     -157.720245      -52.026077
 C         -58.283127     -156.451492      -52.191402
 C         -58.127472     -158.938126      -51.624039
 C         -57.260975     -156.195007      -51.152412
 C         -56.996960     -158.687668      -50.623646
 C         -56.276375     -157.338257      -51.012577
 H         -58.983994     -155.612396      -52.271389
 H         -57.614704     -156.440414      -53.132385
 H         -58.856049     -159.494308      -51.118893
 H         -57.794163     -159.458099      -52.552299
 H         -57.899372     -155.965546      -50.195770
 H         -56.641876     -155.285904      -51.266525
 H         -56.179333     -159.409317      -50.549393
 H         -57.425625     -158.697647      -49.518425
 H         -55.516045     -157.090469      -50.199905
 H         -55.654423     -157.444534      -51.863003
