20
 generated by VMD
 C         -29.533894      -88.740593      -26.065811
 N         -29.427343      -88.917397      -24.902544
 H         -31.841244      -90.831459      -27.702740
 H         -29.500029      -88.719276      -27.133305
 C         -32.379230      -89.954170      -27.518833
 C         -33.072716      -89.869835      -26.116825
 C         -33.119541      -89.336700      -28.694441
 C         -34.025146      -88.765556      -25.845018
 C         -33.978146      -88.152542      -28.249136
 C         -34.849094      -88.445206      -27.040483
 H         -32.326298      -89.976028      -25.259563
 H         -33.578247      -90.871010      -25.970530
 H         -32.289036      -89.088768      -29.354912
 H         -33.694153      -90.219612      -29.100767
 H         -33.384514      -87.991486      -25.668413
 H         -34.662937      -89.055290      -24.998898
 H         -34.605450      -87.785675      -29.123016
 H         -33.366653      -87.326828      -27.808130
 H         -35.384304      -87.570984      -26.658136
 H         -35.676216      -89.201607      -27.108675
