20
 generated by VMD
 C         -38.305794      -98.658401      -27.853916
 N         -38.216537      -99.550163      -27.106501
 H         -37.304676      -98.198807      -30.605312
 H         -38.429295      -97.765457      -28.355888
 C         -36.465500      -97.548622      -30.740944
 C         -35.642132      -98.054977      -31.799984
 C         -35.671524      -96.914444      -29.483458
 C         -34.492889      -97.018799      -32.201073
 C         -34.318645      -96.147041      -29.877937
 C         -33.570084      -96.601166      -31.032051
 H         -36.210121      -98.258835      -32.661076
 H         -35.109608      -98.996780      -31.561251
 H         -36.319057      -96.227615      -29.024048
 H         -35.406006      -97.608727      -28.678356
 H         -34.960041      -96.089920      -32.608219
 H         -33.837578      -97.551910      -33.035423
 H         -33.654404      -96.061356      -29.004299
 H         -34.584373      -95.137001      -29.991768
 H         -32.842720      -95.889534      -31.482054
 H         -33.057831      -97.412781      -30.577650
