20
 generated by VMD
 C         -19.874783      -60.807243      -17.108122
 N         -19.481226      -59.882065      -17.674736
 H         -23.438141      -60.295250      -16.780239
 H         -20.000286      -61.759010      -16.484949
 C         -23.417034      -61.359566      -16.622211
 C         -23.323370      -62.203159      -17.848785
 C         -23.259502      -61.997410      -15.234399
 C         -23.195061      -63.661987      -17.643824
 C         -23.167261      -63.577682      -15.090003
 C         -23.804338      -64.208382      -16.368980
 H         -22.378485      -61.885170      -18.225422
 H         -24.026741      -61.860359      -18.529499
 H         -22.410070      -61.569790      -14.809128
 H         -24.127367      -61.698124      -14.712705
 H         -22.161259      -64.076912      -17.670111
 H         -23.799273      -64.039490      -18.534185
 H         -23.751556      -63.879406      -14.168960
 H         -22.085526      -63.849449      -15.090573
 H         -23.749771      -65.302589      -16.333193
 H         -24.819622      -63.851486      -16.356426
