20
 generated by VMD
 C         -25.441689      -71.195557      -17.093960
 N         -25.378601      -71.114433      -15.927745
 H         -24.045954      -69.008301      -18.524755
 H         -25.766266      -71.239784      -18.172228
 C         -24.522030      -69.009605      -19.465969
 C         -23.846910      -69.806686      -20.539188
 C         -25.800619      -68.388054      -19.906675
 C         -24.877686      -70.721474      -21.247644
 C         -26.803478      -69.302376      -20.618517
 C         -26.138662      -70.001015      -21.713612
 H         -23.265259      -70.526260      -19.992010
 H         -23.342045      -69.237648      -21.278725
 H         -26.161455      -67.862755      -19.046518
 H         -25.597980      -67.424164      -20.465023
 H         -25.090645      -71.587799      -20.551910
 H         -24.453819      -71.048531      -22.178003
 H         -27.605429      -68.673325      -21.069042
 H         -27.322136      -69.925110      -19.859684
 H         -26.916513      -70.657684      -22.207188
 H         -26.107103      -69.181854      -22.474255
