20
 generated by VMD
 C         -49.153545     -127.258186      -38.969845
 N         -50.081875     -127.024338      -38.327362
 H         -46.885948     -125.126839      -39.890343
 H         -48.401695     -127.603867      -39.691063
 C         -46.016613     -124.645927      -40.261345
 C         -44.704391     -125.264984      -40.121273
 C         -46.241634     -123.240189      -40.665192
 C         -43.735718     -124.709854      -41.157318
 C         -45.158730     -122.745308      -41.656731
 C         -43.817802     -123.184540      -41.094723
 H         -44.771530     -126.335854      -40.228199
 H         -44.411167     -124.991692      -39.171787
 H         -47.251644     -122.949966      -40.973480
 H         -46.149578     -122.796722      -39.562660
 H         -43.931282     -125.079460      -42.143547
 H         -42.729061     -125.057487      -40.941418
 H         -45.487282     -121.649063      -41.990250
 H         -45.202541     -123.329605      -42.650047
 H         -42.998394     -122.627914      -41.624355
 H         -43.763073     -122.786285      -40.076241
