20
 generated by VMD
 C          -1.606985       -9.373565        1.069660
 N          -1.774393       -9.792557        0.064443
 H          -2.740113      -12.022712        1.793357
 H          -3.703404      -12.179884        3.322303
 C          -3.548944      -12.589741        2.325810
 C          -2.992419      -13.984886        2.489798
 C          -4.892685      -12.693322        1.579374
 C          -3.909820      -14.962011        3.235229
 C          -5.892269      -13.609493        2.304081
 C          -5.258352      -15.010656        2.585287
 H          -2.113223      -14.040768        3.092253
 H          -2.730773      -14.585269        1.569027
 H          -5.282521      -11.710328        1.469473
 H          -4.728603      -12.990835        0.555607
 H          -3.985577      -14.700214        4.338813
 H          -3.419322      -15.956074        3.207443
 H          -6.738180      -13.809412        1.638465
 H          -6.301953      -13.126876        3.229336
 H          -5.949395      -15.533740        3.217018
 H          -5.184220      -15.489957        1.630755
