20
 generated by VMD
 C         -58.578957     -160.066299      -57.043594
 N         -58.512238     -159.931519      -58.135468
 H         -58.823448     -162.394150      -54.995205
 H         -58.592564     -160.241211      -55.985931
 C         -59.564438     -162.458389      -54.193211
 C         -59.131966     -162.596283      -52.771187
 C         -60.964302     -162.765320      -54.608963
 C         -60.292877     -162.127014      -51.888367
 C         -61.840290     -161.946289      -53.680164
 C         -61.696289     -162.428970      -52.302708
 H         -58.356564     -161.837357      -52.675396
 H         -58.913315     -163.693207      -52.674500
 H         -61.047287     -162.371262      -55.575878
 H         -61.249470     -163.864578      -54.665375
 H         -60.270027     -161.023041      -51.744804
 H         -60.043163     -162.424927      -50.943989
 H         -62.817871     -162.210022      -54.076515
 H         -61.821869     -160.905151      -53.596947
 H         -62.374535     -161.954315      -51.656200
 H         -61.830338     -163.527603      -52.276199
