20
 generated by VMD
 C         -78.687439     -209.104523      -77.092941
 N         -79.681786     -208.578522      -76.692787
 H         -78.357941     -209.105621      -73.168228
 H         -77.805290     -209.514862      -77.507912
 C         -78.267342     -209.825211      -72.317787
 C         -76.869316     -209.777374      -71.463036
 C         -79.156105     -211.041885      -72.413338
 C         -77.236435     -210.554062      -70.136246
 C         -79.473137     -211.473663      -70.901176
 C         -78.132896     -211.796127      -70.131767
 H         -76.490997     -208.738205      -71.198296
 H         -76.037582     -210.204758      -72.064552
 H         -80.106232     -210.916077      -72.912888
 H         -78.545021     -211.761200      -73.065826
 H         -77.565727     -209.861649      -69.321739
 H         -76.259995     -210.855301      -69.691154
 H         -80.011093     -212.356934      -71.008583
 H         -80.041718     -210.793961      -70.154770
 H         -78.327477     -212.186234      -69.139519
 H         -77.515602     -212.506363      -70.665901
