20
 generated by VMD
 C         -42.053711     -101.548126      -33.154198
 N         -41.137970     -101.655800      -33.884365
 H         -38.986095     -103.701920      -32.473610
 H         -42.893093     -101.223381      -32.485603
 C         -37.946545     -103.460762      -32.169205
 C         -36.697182     -103.409042      -32.995914
 C         -37.714565     -103.966202      -30.758192
 C         -35.563366     -102.651237      -32.418808
 C         -36.496185     -103.197472      -30.147234
 C         -35.245411     -103.141052      -31.003698
 H         -36.966034     -103.040039      -33.967426
 H         -36.315834     -104.441772      -33.096146
 H         -38.634811     -103.759445      -30.232382
 H         -37.455845     -105.096809      -30.854078
 H         -35.738983     -101.552956      -32.398632
 H         -34.550941     -102.866928      -32.858547
 H         -36.101009     -103.531647      -29.090748
 H         -36.885502     -102.222694      -29.983002
 H         -34.629292     -102.460182      -30.369253
 H         -34.773262     -104.099266      -31.011492
