20
 generated by VMD
 C         -10.701236      -37.327442       -8.186690
 N         -10.475345      -36.693836       -7.259242
 H         -12.801691      -39.239609       -7.963395
 H         -14.205021      -39.329918       -6.763922
 C         -13.846291      -39.651329       -7.819168
 C         -13.711900      -41.183899       -7.876321
 C         -14.766580      -39.138626       -8.933848
 C         -15.096698      -41.726112       -7.557842
 C         -16.139399      -39.799320       -8.931048
 C         -16.078535      -41.313583       -8.705973
 H         -12.970875      -41.485199       -7.087534
 H         -13.393308      -41.397995       -8.911499
 H         -14.883692      -38.052662       -8.757208
 H         -14.319305      -39.373165       -9.862829
 H         -15.544608      -41.229866       -6.671437
 H         -14.990895      -42.791065       -7.457371
 H         -16.737144      -39.605988       -9.892677
 H         -16.770731      -39.454880       -8.167269
 H         -17.120989      -41.642719       -8.421263
 H         -15.906577      -41.772251       -9.671151
