20
 generated by VMD
 C         -49.869267     -131.904404      -46.640495
 N         -50.031189     -132.591873      -47.590321
 H         -48.086998     -132.336670      -44.238613
 H         -49.850010     -131.517334      -45.588478
 C         -48.744621     -132.833099      -43.464836
 C         -49.567871     -134.039017      -43.877380
 C         -48.913414     -132.445786      -42.027710
 C         -49.385582     -135.199158      -42.869495
 C         -48.767113     -133.615128      -41.053795
 C         -49.688709     -134.809921      -41.441551
 H         -49.169552     -134.291351      -44.870213
 H         -50.514313     -133.619217      -44.071999
 H         -48.183216     -131.663528      -41.797447
 H         -49.959236     -131.978104      -41.823875
 H         -48.335846     -135.599289      -42.929108
 H         -50.085274     -136.054535      -43.115295
 H         -49.037663     -133.278671      -40.043228
 H         -47.723244     -133.930420      -40.953255
 H         -49.621880     -135.636993      -40.819748
 H         -50.762337     -134.491089      -41.476261
