20
 generated by VMD
 C         -61.262356     -156.117081      -54.845695
 N         -60.506134     -155.949036      -55.650009
 H         -59.476105     -155.774796      -51.393177
 H         -61.902149     -156.191238      -53.961437
 C         -58.434601     -156.007202      -51.414413
 C         -57.631203     -154.945343      -50.790024
 C         -57.790344     -157.223816      -52.089062
 C         -56.347832     -155.433823      -50.181000
 C         -56.397121     -157.534973      -51.455822
 C         -55.611004     -156.299759      -51.185566
 H         -58.180882     -154.585480      -49.897301
 H         -57.550964     -154.059250      -51.354965
 H         -58.511276     -158.191940      -52.067165
 H         -57.695305     -156.902542      -53.148972
 H         -56.354721     -156.048920      -49.254299
 H         -55.776222     -154.418686      -50.084232
 H         -55.983326     -158.277740      -52.209084
 H         -56.531761     -157.979843      -50.507137
 H         -54.622974     -156.531464      -50.736797
 H         -55.478405     -155.754578      -52.155239
