20
 generated by VMD
 C         -69.889931     -197.416351      -66.073662
 N         -69.380119     -196.455887      -65.712959
 H         -71.748291     -194.128067      -64.934937
 H         -70.456665     -198.219482      -66.387291
 C         -72.637711     -193.885956      -65.537239
 C         -72.856895     -192.401596      -66.046288
 C         -73.099220     -194.999176      -66.361130
 C         -73.706642     -192.201401      -67.363739
 C         -74.074142     -194.726700      -67.472710
 C         -73.586319     -193.450455      -68.207283
 H         -71.737793     -192.151627      -66.379395
 H         -73.339691     -191.904892      -65.226395
 H         -72.286255     -195.386948      -66.989082
 H         -73.538841     -195.768463      -65.708054
 H         -73.371658     -191.338608      -68.016220
 H         -74.730713     -192.054642      -66.935387
 H         -75.040855     -194.507370      -67.040428
 H         -74.237015     -195.614899      -68.128960
 H         -72.600761     -193.609467      -68.496078
 H         -74.279060     -193.324081      -69.091240
