20
 generated by VMD
 C          -2.514353      -16.657557        2.736725
 N          -1.770298      -17.229807        2.138808
 H          -4.743698      -16.155514        0.586092
 H          -4.492265      -17.274940       -0.701680
 C          -5.310202      -16.900805       -0.086103
 C          -6.323275      -16.279842       -1.037090
 C          -5.913790      -17.955318        0.840217
 C          -7.250205      -17.279289       -1.781822
 C          -6.814502      -18.990078        0.116700
 C          -7.865006      -18.239382       -0.778500
 H          -5.834977      -15.710400       -1.799330
 H          -6.948529      -15.599767       -0.379962
 H          -5.086161      -18.504745        1.284308
 H          -6.487886      -17.405731        1.492855
 H          -6.653349      -17.854124       -2.528049
 H          -8.050046      -16.636665       -2.320198
 H          -7.372778      -19.525990        0.861172
 H          -6.286989      -19.683603       -0.563866
 H          -8.458709      -18.989862       -1.326347
 H          -8.572524      -17.788675       -0.118907
