20
 generated by VMD
 C         -43.282825     -121.159935      -35.819241
 N         -43.420700     -120.512505      -34.883015
 H         -44.518620     -122.114250      -38.909485
 H         -43.079929     -121.895821      -36.624733
 C         -44.635242     -121.158730      -39.320679
 C         -43.378677     -120.525940      -39.738094
 C         -45.782097     -120.345078      -38.826099
 C         -43.522827     -119.216820      -40.442043
 C         -45.834522     -118.899971      -39.413586
 C         -44.442268     -118.226608      -39.430470
 H         -42.883572     -121.243423      -40.428909
 H         -42.671638     -120.509010      -38.846916
 H         -46.747028     -120.757713      -39.014927
 H         -45.663857     -120.134193      -37.738190
 H         -43.960567     -119.475319      -41.384628
 H         -42.605801     -118.720856      -40.518646
 H         -46.480938     -118.255447      -38.942364
 H         -46.101799     -119.062828      -40.401588
 H         -44.576588     -117.169548      -39.820335
 H         -43.803513     -118.058723      -38.482700
