20
 generated by VMD
 C         -41.071407     -102.294411      -34.748970
 N         -41.468193     -101.948532      -35.795723
 H         -39.594326     -104.796860      -32.427288
 H         -41.022633     -102.521576      -33.641052
 C         -38.721966     -104.629982      -31.922941
 C         -37.649944     -103.955872      -32.838844
 C         -38.269119     -105.638634      -30.932283
 C         -36.334755     -103.595467      -32.077713
 C         -36.899273     -105.331116      -30.334723
 C         -35.922428     -104.856956      -31.381363
 H         -38.151356     -103.004311      -33.290131
 H         -37.403919     -104.545433      -33.737843
 H         -39.082981     -105.855042      -30.170233
 H         -38.093109     -106.543205      -31.364901
 H         -36.432037     -102.824883      -31.351709
 H         -35.664711     -103.224167      -32.852581
 H         -36.514118     -106.175629      -29.721586
 H         -37.161438     -104.555565      -29.678148
 H         -34.970551     -104.631989      -30.843351
 H         -35.602566     -105.594986      -32.107315
