20
 generated by VMD
 C         -58.889580     -160.100693      -56.990551
 N         -58.354725     -159.988068      -58.056801
 H         -58.704830     -162.017975      -55.037247
 H         -59.385487     -160.230392      -56.025906
 C         -59.395386     -161.958878      -54.199226
 C         -59.039036     -162.352707      -52.811020
 C         -60.870193     -162.165039      -54.592617
 C         -60.128895     -161.938950      -51.840424
 C         -61.959251     -161.972275      -53.480034
 C         -61.462181     -162.508377      -52.179482
 H         -58.026436     -161.829910      -52.574154
 H         -58.734074     -163.403824      -52.749214
 H         -61.067085     -161.580383      -55.437408
 H         -60.972370     -163.265137      -54.814697
 H         -60.316963     -160.898422      -51.794838
 H         -59.889996     -162.320786      -50.752220
 H         -62.859364     -162.606750      -53.862503
 H         -62.260941     -160.878265      -53.421982
 H         -62.187740     -162.490311      -51.360237
 H         -61.305653     -163.563828      -52.354332
