20
 generated by VMD
 C         -27.236195      -72.866783      -17.969711
 N         -28.003120      -73.343857      -17.227932
 H         -24.790258      -70.181099      -18.766153
 H         -26.662012      -72.256889      -18.548744
 C         -25.105150      -70.674553      -19.669390
 C         -24.467009      -71.994148      -20.207457
 C         -25.506186      -69.639206      -20.673962
 C         -25.235168      -72.460030      -21.544905
 C         -26.471807      -70.226860      -21.721094
 C         -25.946686      -71.474358      -22.472879
 H         -24.591230      -72.816727      -19.411240
 H         -23.397465      -71.825630      -20.395357
 H         -25.972668      -68.876549      -20.007187
 H         -24.647465      -69.170456      -21.221090
 H         -25.964733      -73.258621      -21.323463
 H         -24.438475      -72.992844      -22.049767
 H         -26.816563      -69.500763      -22.504482
 H         -27.477007      -70.573944      -21.334085
 H         -26.757761      -72.015823      -22.917887
 H         -25.222414      -71.169159      -23.200420
