20
 generated by VMD
 C         -67.972023     -178.518539      -58.032616
 N         -66.923347     -178.425262      -57.551060
 H         -65.284500     -176.072937      -58.538311
 H         -68.936020     -178.513672      -58.474922
 C         -65.005280     -175.697342      -59.556789
 C         -66.017441     -174.644852      -60.002979
 C         -63.549438     -175.565277      -59.908535
 C         -65.450241     -173.288391      -59.917645
 C         -63.028313     -174.138351      -59.888744
 C         -63.998966     -173.131195      -60.485783
 H         -66.906479     -174.754364      -59.274796
 H         -66.329178     -174.750961      -61.025101
 H         -63.049751     -176.267090      -59.213272
 H         -63.410053     -176.149857      -60.814720
 H         -65.228088     -173.080856      -58.823315
 H         -66.146370     -172.499115      -60.375454
 H         -62.220898     -173.937714      -60.531223
 H         -62.753201     -174.014908      -58.799213
 H         -63.727051     -172.054749      -60.461384
 H         -64.169113     -173.336166      -61.526134
