20
 generated by VMD
 C         -50.170517     -131.086121      -46.499371
 N         -50.318459     -131.359009      -47.622375
 H         -48.322361     -132.016281      -44.116890
 H         -50.414444     -130.672104      -45.561291
 C         -48.945244     -132.217194      -43.277828
 C         -49.400013     -133.665390      -43.179874
 C         -48.616364     -131.523895      -41.897511
 C         -48.666210     -134.484039      -42.144852
 C         -47.847111     -132.459656      -40.985462
 C         -48.499012     -133.784668      -40.793625
 H         -49.339455     -134.163925      -44.234886
 H         -50.463039     -133.714813      -43.013119
 H         -48.082447     -130.547333      -42.194920
 H         -49.701385     -131.270844      -41.568348
 H         -47.624447     -134.710571      -42.448795
 H         -49.209431     -135.453644      -42.061813
 H         -47.742767     -131.965790      -39.928932
 H         -46.849060     -132.592590      -41.534184
 H         -48.006176     -134.279648      -39.999081
 H         -49.509769     -133.681030      -40.250793
