20
 generated by VMD
 C         -40.106415     -116.931915      -34.477436
 N         -39.422398     -115.969749      -34.545956
 H         -41.395184     -116.020874      -37.871975
 H         -40.909214     -117.581757      -34.462013
 C         -42.428913     -116.140381      -37.934303
 C         -43.174625     -115.872505      -39.206963
 C         -43.248745     -115.895416      -36.683327
 C         -44.538380     -116.605476      -39.265923
 C         -44.610985     -116.683716      -36.728954
 C         -45.408112     -116.509514      -37.959488
 H         -42.617340     -116.086906      -40.133640
 H         -43.188702     -114.754799      -39.178654
 H         -42.696510     -116.236671      -35.881683
 H         -43.383476     -114.843071      -36.510071
 H         -44.274261     -117.684517      -39.476189
 H         -45.145660     -116.289246      -40.131699
 H         -45.095592     -116.346855      -35.790997
 H         -44.282188     -117.759354      -36.561699
 H         -46.048611     -117.442284      -38.138428
 H         -45.912464     -115.525375      -38.266262
