20
 generated by VMD
 C         -79.657272     -205.376434      -71.072937
 N         -80.241745     -206.320816      -71.457397
 H         -77.406158     -202.978287      -70.405243
 H         -79.029709     -204.509277      -70.946754
 C         -76.339050     -203.290771      -70.266426
 C         -75.243912     -202.351242      -70.440353
 C         -75.912170     -204.721191      -70.055336
 C         -73.785118     -202.809647      -70.471237
 C         -74.622795     -204.861908      -69.193207
 C         -73.506874     -203.989792      -69.610054
 H         -75.298233     -201.595337      -69.595886
 H         -75.503754     -201.749298      -71.266335
 H         -76.705025     -205.228180      -69.489189
 H         -75.853111     -205.277161      -71.037109
 H         -73.028381     -201.984924      -70.198227
 H         -73.611275     -203.170670      -71.539635
 H         -74.171944     -205.893677      -69.071350
 H         -74.927902     -204.612701      -68.181999
 H         -73.124832     -203.405869      -68.659721
 H         -72.569427     -204.542099      -69.981461
