20
 generated by VMD
 C         -70.238228     -181.203720      -63.585560
 N         -71.083961     -181.896942      -63.291920
 H         -67.998009     -181.468506      -60.923168
 H         -69.434265     -180.488831      -63.759232
 C         -67.137054     -180.793839      -60.855145
 C         -65.734062     -181.464569      -60.462765
 C         -67.333839     -179.347443      -60.542530
 C         -64.545273     -180.609344      -60.689640
 C         -66.169815     -178.568283      -60.893070
 C         -64.905373     -179.125641      -60.245007
 H         -65.594849     -182.418976      -61.050663
 H         -65.660286     -181.901596      -59.490543
 H         -68.242317     -179.047806      -61.150372
 H         -67.684845     -179.424805      -59.542419
 H         -64.321106     -180.472488      -61.793221
 H         -63.684326     -181.126740      -60.145699
 H         -66.329178     -177.488297      -60.635368
 H         -66.090218     -178.486435      -61.994541
 H         -64.020531     -178.505066      -60.591568
 H         -65.104507     -179.182846      -59.245445
