20
 generated by VMD
 C         -59.979362     -171.488281      -55.278786
 N         -59.465019     -172.473663      -54.915264
 H         -63.116032     -170.435013      -56.964123
 H         -60.525864     -170.618042      -55.624519
 C         -63.427132     -169.399857      -56.886230
 C         -62.522343     -168.364441      -57.423153
 C         -64.992065     -169.162552      -56.839874
 C         -63.008503     -167.914215      -58.797520
 C         -65.432228     -168.715027      -58.193230
 C         -64.554573     -167.601562      -58.672909
 H         -61.523609     -168.926804      -57.495796
 H         -62.334297     -167.594131      -56.600376
 H         -65.350655     -170.161743      -56.425961
 H         -65.285248     -168.434067      -56.038147
 H         -62.957001     -168.750107      -59.585552
 H         -62.549179     -166.953415      -59.222549
 H         -66.412102     -168.404465      -58.253479
 H         -65.450119     -169.556732      -58.837215
 H         -64.843658     -167.181915      -59.677635
 H         -64.720634     -166.761719      -58.014912
