20
 generated by VMD
 C         -78.035347     -210.180557      -76.269165
 N         -77.172073     -211.018463      -76.213867
 H         -80.426208     -212.989716      -75.055695
 H         -78.724297     -209.412369      -76.287354
 C         -80.276917     -213.164932      -74.005394
 C         -78.837990     -213.326263      -73.594208
 C         -81.253998     -214.074005      -73.309555
 C         -78.623985     -213.097336      -72.148506
 C         -81.161781     -213.782837      -71.848618
 C         -79.676590     -213.893829      -71.398506
 H         -78.166664     -212.839813      -74.319412
 H         -78.645149     -214.424301      -73.693726
 H         -82.224907     -214.027191      -73.805679
 H         -80.983940     -215.200455      -73.479523
 H         -78.677460     -212.037750      -71.832771
 H         -77.697784     -213.567505      -71.864532
 H         -81.683403     -214.539459      -71.389343
 H         -81.628235     -212.824371      -71.639023
 H         -79.570938     -213.558075      -70.442322
 H         -79.414543     -214.930267      -71.507500
