20
 generated by VMD
 C         -33.617336      -96.499298      -25.730322
 N         -34.598068      -96.516762      -26.365498
 H         -35.054337      -94.375412      -27.410889
 H         -32.723610      -96.447395      -25.195007
 C         -34.938965      -94.108955      -28.433884
 C         -35.933811      -94.788010      -29.298712
 C         -33.604580      -93.925217      -29.001930
 C         -36.056164      -93.888916      -30.565260
 C         -33.793549      -92.941536      -30.188309
 C         -34.713318      -93.573700      -31.275785
 H         -36.966202      -94.924255      -28.899113
 H         -35.549339      -95.788597      -29.501570
 H         -33.161350      -93.375801      -28.202837
 H         -33.015106      -94.826958      -29.196795
 H         -36.523289      -92.911407      -30.173250
 H         -36.732986      -94.373314      -31.247646
 H         -32.712273      -92.876312      -30.464024
 H         -34.217525      -91.967834      -29.888487
 H         -34.938766      -92.868706      -32.228054
 H         -34.537945      -94.561951      -31.731998
