20
 generated by VMD
 C         -50.600655     -129.397934      -43.156940
 N         -50.346428     -128.280914      -42.825504
 H         -48.542568     -128.190277      -40.588985
 H         -51.013737     -130.390411      -43.349056
 C         -47.549858     -127.777084      -40.378071
 C         -46.431786     -128.579086      -39.936108
 C         -47.118580     -126.462891      -40.931843
 C         -45.342964     -128.809280      -41.059429
 C         -46.163261     -126.595871      -42.078308
 C         -44.891705     -127.309723      -41.569294
 H         -46.692337     -129.666336      -39.711979
 H         -46.013927     -128.234665      -39.012623
 H         -48.123524     -126.039597      -41.322777
 H         -46.762829     -125.863754      -40.166359
 H         -45.837891     -129.264069      -41.922554
 H         -44.476154     -129.314636      -40.602009
 H         -45.842979     -125.639465      -42.552567
 H         -46.661587     -127.276558      -42.896866
 H         -44.228756     -127.368263      -42.392315
 H         -44.365227     -126.832153      -40.754261
