20
 generated by VMD
 C         -68.490021     -185.069931      -66.071922
 N         -69.522003     -185.597504      -66.103790
 H         -69.561974     -182.775452      -63.442444
 H         -67.489357     -184.556763      -65.965416
 C         -69.266464     -183.606995      -62.738235
 C         -70.127625     -184.834457      -62.641186
 C         -67.845482     -183.673294      -62.556591
 C         -69.215248     -185.979935      -61.999607
 C         -67.605186     -184.207962      -61.150166
 C         -68.345985     -185.510849      -60.813923
 H         -70.598183     -185.042572      -63.592823
 H         -70.995583     -184.533813      -61.952065
 H         -67.373138     -184.273636      -63.283005
 H         -67.350014     -182.709381      -62.653419
 H         -68.543755     -186.389877      -62.770004
 H         -69.955414     -186.743423      -61.686069
 H         -67.973557     -183.350266      -60.554169
 H         -66.562820     -184.410248      -60.965397
 H         -67.550690     -186.209198      -60.497887
 H         -68.991776     -185.275391      -60.063335
