20
 generated by VMD
 C         -10.790268      -37.089691       -8.160507
 N         -10.233273      -36.762077       -7.278036
 H         -12.832917      -39.021969       -8.011173
 H         -14.178156      -39.223824       -6.766980
 C         -13.840551      -39.513256       -7.832577
 C         -13.709099      -41.054871       -7.821317
 C         -14.810866      -39.105888       -8.904016
 C         -15.076732      -41.720879       -7.592475
 C         -16.190876      -39.827133       -8.876740
 C         -16.053762      -41.347195       -8.645658
 H         -12.993447      -41.240391       -6.981350
 H         -13.318388      -41.365082       -8.819057
 H         -14.970624      -38.021950       -8.756452
 H         -14.362709      -39.340019       -9.842366
 H         -15.538407      -41.454197       -6.620415
 H         -14.881861      -42.767834       -7.718261
 H         -16.773863      -39.707424       -9.865175
 H         -16.853498      -39.480877       -8.141635
 H         -17.082150      -41.773510       -8.457621
 H         -15.772371      -41.784973       -9.620806
