20
 generated by VMD
 C         -79.724762     -206.287582      -73.227669
 N         -79.405891     -206.523880      -74.318970
 H         -78.147202     -205.230057      -69.744331
 H         -79.673691     -206.083389      -72.201164
 C         -77.341835     -205.767853      -70.160614
 C         -76.482788     -205.044785      -71.166267
 C         -76.993927     -207.199112      -69.790688
 C         -75.034645     -205.048904      -70.624390
 C         -75.576538     -207.119858      -69.181374
 C         -74.620445     -206.375839      -70.127480
 H         -76.620522     -203.961166      -71.171730
 H         -76.813087     -205.453735      -72.237091
 H         -77.722343     -207.481308      -69.017120
 H         -77.209526     -207.856644      -70.656265
 H         -74.908897     -204.390747      -69.757896
 H         -74.287102     -204.780533      -71.384308
 H         -75.183144     -208.144501      -68.911781
 H         -75.475929     -206.588547      -68.222748
 H         -73.608192     -206.312347      -69.736656
 H         -74.602867     -206.986389      -71.070244
