20
 generated by VMD
 C         -20.681898      -64.416550      -16.807533
 N         -19.615479      -64.003593      -16.532684
 H         -24.001009      -63.358971      -17.422819
 H         -21.680590      -64.524025      -16.911308
 C         -24.324131      -64.365723      -17.854120
 C         -24.542025      -64.506836      -19.312475
 C         -24.585224      -65.310814      -16.743587
 C         -24.881783      -65.989433      -19.684431
 C         -24.614029      -66.736336      -17.211966
 C         -25.361111      -66.842087      -18.536081
 H         -23.562777      -64.285469      -19.810675
 H         -25.411495      -63.871895      -19.523983
 H         -23.806328      -65.224663      -16.093018
 H         -25.480181      -65.004387      -16.218060
 H         -23.972706      -66.301933      -20.125652
 H         -25.593443      -65.884964      -20.447964
 H         -25.083023      -67.327408      -16.401945
 H         -23.615120      -67.111732      -17.308664
 H         -25.588690      -67.902794      -18.772240
 H         -26.339710      -66.487068      -18.356026
