20
 generated by VMD
 C         -47.183701     -137.596939      -46.250641
 N         -47.166798     -136.867508      -47.105625
 H         -50.573540     -136.345963      -44.685768
 H         -47.023441     -138.098312      -45.298981
 C         -51.304596     -137.189270      -44.678505
 C         -51.375214     -137.997574      -46.045677
 C         -52.562080     -137.041702      -43.880871
 C         -52.116440     -139.298691      -45.759743
 C         -53.184147     -138.403564      -43.621773
 C         -53.452682     -139.128937      -45.040413
 H         -50.283821     -138.252457      -46.322670
 H         -51.850403     -137.471054      -46.858803
 H         -52.304321     -136.508347      -42.970486
 H         -53.150265     -136.359726      -44.404278
 H         -51.387703     -140.064728      -45.378483
 H         -52.466988     -139.839432      -46.711739
 H         -54.078838     -138.353226      -42.833462
 H         -52.584023     -139.103790      -43.019451
 H         -54.086338     -140.125504      -44.867691
 H         -54.185215     -138.455078      -45.667545
