20
 generated by VMD
 C         -12.075203      -25.410101       -0.567204
 N         -12.822113      -25.828598        0.133788
 H          -8.846616      -26.890097       -2.038108
 H          -9.334381      -25.924246       -3.368883
 C          -8.429464      -26.238926       -2.840563
 C          -7.467512      -27.067286       -3.730512
 C          -7.848908      -24.877768       -2.396755
 C          -6.929236      -26.108055       -4.947462
 C          -7.269800      -24.027731       -3.507753
 C          -6.312538      -24.792765       -4.447881
 H          -8.029849      -27.844687       -4.318770
 H          -6.602538      -27.445721       -3.166688
 H          -8.683789      -24.343248       -1.894508
 H          -7.050673      -25.119705       -1.710276
 H          -7.822086      -25.916714       -5.556940
 H          -6.215417      -26.691015       -5.531230
 H          -6.760824      -23.149178       -3.119849
 H          -8.056052      -23.544744       -4.109290
 H          -6.072655      -24.180830       -5.338761
 H          -5.340653      -24.983345       -4.000097
