20
 generated by VMD
 C         -23.042028      -55.288731      -16.783583
 N         -23.530598      -54.817692      -15.814273
 H         -19.353748      -55.354752      -15.524226
 H         -22.614933      -55.832966      -17.775583
 C         -19.325289      -56.216007      -14.859551
 C         -19.802891      -56.173744      -13.508779
 C         -18.375473      -57.348049      -15.132904
 C         -20.610975      -57.401615      -13.228374
 C         -19.009960      -58.666058      -14.672419
 C         -19.772051      -58.628727      -13.335742
 H         -20.603266      -55.360531      -13.511452
 H         -18.921886      -55.902027      -12.880605
 H         -18.176760      -57.382477      -16.259655
 H         -17.459656      -57.356716      -14.563261
 H         -21.540194      -57.418194      -13.831880
 H         -20.945591      -57.330170      -12.226121
 H         -18.256870      -59.461143      -14.556469
 H         -19.634945      -58.944050      -15.463487
 H         -20.408758      -59.549660      -13.289843
 H         -19.154634      -58.687492      -12.446745
