20
 generated by VMD
 C         -78.555344     -209.210541      -77.130646
 N         -77.858574     -209.714554      -77.891205
 H         -79.191353     -211.623291      -74.110680
 H         -79.260666     -208.783478      -76.457237
 C         -79.320732     -212.054840      -73.079910
 C         -77.997818     -212.325394      -72.434959
 C         -80.435509     -212.974838      -72.794739
 C         -78.303375     -212.544052      -70.903259
 C         -80.714172     -213.377777      -71.373985
 C         -79.352669     -213.680466      -70.731422
 H         -77.346420     -211.391205      -72.622459
 H         -77.494606     -213.259140      -72.756584
 H         -81.394707     -212.675858      -73.236313
 H         -80.310051     -213.959045      -73.415192
 H         -78.554810     -211.554062      -70.507332
 H         -77.426315     -212.994003      -70.428696
 H         -81.230980     -214.252960      -71.422211
 H         -81.233566     -212.581329      -70.908592
 H         -79.627403     -213.979660      -69.681564
 H         -78.924232     -214.495209      -71.361473
