20
 generated by VMD
 C         -29.363268      -89.740967      -25.476389
 N         -29.454439      -88.608284      -25.593727
 H         -31.695978      -90.878441      -27.539621
 H         -29.296347      -90.763985      -25.516266
 C         -32.529480      -90.183983      -27.458202
 C         -33.700085      -90.557373      -26.461273
 C         -32.967422      -89.396332      -28.685232
 C         -34.595768      -89.363647      -26.112747
 C         -33.694908      -88.198814      -28.182148
 C         -34.970982      -88.461563      -27.337193
 H         -33.268013      -90.991051      -25.595592
 H         -34.300251      -91.314232      -26.845318
 H         -32.065174      -89.125870      -29.230022
 H         -33.471264      -90.232529      -29.114283
 H         -34.085049      -88.763763      -25.390703
 H         -35.439568      -89.786514      -25.579676
 H         -34.048016      -87.605858      -28.992767
 H         -33.049892      -87.500488      -27.655163
 H         -35.358345      -87.638039      -26.822645
 H         -35.693062      -88.999359      -27.948656
