20
 generated by VMD
 C         -47.562199     -137.980850      -45.997444
 N         -47.290482     -137.457169      -47.033497
 H         -50.323441     -137.186142      -44.459579
 H         -47.935581     -138.637146      -45.254608
 C         -51.301983     -137.641205      -44.755211
 C         -51.335258     -138.452072      -46.126556
 C         -52.597073     -137.486481      -44.001694
 C         -52.296890     -139.644165      -46.049213
 C         -53.487698     -138.744522      -44.046989
 C         -53.630577     -139.199295      -45.517494
 H         -50.296543     -138.883163      -46.233860
 H         -51.542595     -137.655304      -46.863956
 H         -52.258770     -137.387802      -42.955227
 H         -53.175285     -136.569870      -44.350090
 H         -51.837635     -140.462158      -45.339546
 H         -52.566299     -139.971161      -47.053600
 H         -54.454861     -138.447083      -43.730919
 H         -52.933537     -139.567459      -43.434410
 H         -54.442684     -140.029739      -45.513885
 H         -54.050091     -138.269135      -46.184387
