20
 generated by VMD
 C         -70.223183     -182.811111      -63.710815
 N         -69.655846     -183.042648      -64.716072
 H         -68.766434     -179.962372      -62.094570
 H         -70.753677     -182.569717      -62.826180
 C         -67.930611     -180.333420      -61.557560
 C         -67.735771     -181.755203      -61.324947
 C         -67.093666     -179.396500      -60.783367
 C         -66.216881     -182.317200      -61.007019
 C         -65.596886     -179.906021      -60.610123
 C         -65.588783     -181.312378      -59.954670
 H         -67.964005     -182.396088      -62.214485
 H         -68.384438     -182.061340      -60.540077
 H         -67.244263     -178.338272      -61.115005
 H         -67.673965     -179.301712      -59.940750
 H         -65.600876     -182.334183      -61.801804
 H         -66.226433     -183.299484      -60.683464
 H         -64.955467     -179.256744      -59.987404
 H         -65.161156     -179.890518      -61.617752
 H         -64.586845     -181.823059      -59.645451
 H         -66.186569     -181.244736      -59.068657
