20
 generated by VMD
 C         -52.937946     -146.713821      -44.622169
 N         -51.839012     -146.810455      -44.851334
 H         -54.092278     -146.255005      -47.351166
 H         -54.012390     -146.648911      -44.362976
 C         -54.094429     -145.415100      -48.021736
 C         -52.931343     -145.337814      -48.950577
 C         -54.904011     -144.208099      -47.620056
 C         -53.411232     -144.529236      -50.269730
 C         -55.341049     -143.441528      -48.908665
 C         -54.192989     -143.208679      -49.970661
 H         -52.549065     -146.431870      -49.153130
 H         -52.135963     -144.823120      -48.403751
 H         -55.816029     -144.693863      -47.217529
 H         -54.248894     -143.484238      -47.021236
 H         -54.123379     -145.155685      -50.764454
 H         -52.473869     -144.479050      -50.768291
 H         -55.701756     -142.396118      -48.622379
 H         -56.135681     -143.958130      -49.410530
 H         -54.566849     -142.652924      -50.896717
 H         -53.458805     -142.452545      -49.498562
