20
 generated by VMD
 C         -56.673386     -150.010513      -47.868450
 N         -57.584476     -150.506119      -48.279541
 H         -53.421352     -148.565643      -47.388954
 H         -55.771095     -149.647842      -47.370346
 C         -53.972271     -148.407776      -48.372257
 C         -53.274326     -149.075882      -49.491722
 C         -54.807961     -147.201233      -48.534332
 C         -54.219074     -149.003876      -50.774479
 C         -55.564026     -147.017365      -49.863949
 C         -54.817478     -147.632263      -51.129944
 H         -53.153526     -150.183655      -49.156643
 H         -52.332710     -148.554123      -49.758873
 H         -55.618198     -147.282013      -47.796692
 H         -54.168480     -146.277664      -48.155689
 H         -55.027908     -149.766357      -50.771267
 H         -53.519821     -149.327621      -51.567314
 H         -55.714554     -145.967926      -49.989983
 H         -56.599457     -147.609955      -49.960861
 H         -55.475548     -147.679764      -52.007671
 H         -53.961815     -146.892471      -51.369881
