20
 generated by VMD
 C         -12.528854      -30.220640       -7.892713
 N         -13.552973      -29.918596       -7.566139
 H         -11.392933      -30.435097       -5.298490
 H         -10.455164      -30.617289       -3.730586
 C         -10.840135      -31.086586       -4.585269
 C          -9.661457      -31.549889       -5.407558
 C         -11.699267      -32.201191       -4.090243
 C          -8.936850      -32.714619       -4.714335
 C         -10.994812      -33.397934       -3.532327
 C          -9.905875      -33.909077       -4.460925
 H          -8.982661      -30.793783       -5.685003
 H         -10.039175      -31.924150       -6.430886
 H         -12.410758      -31.795090       -3.370556
 H         -12.256367      -32.611931       -4.926603
 H          -8.445787      -32.385071       -3.780153
 H          -8.123499      -33.013313       -5.383990
 H         -11.749917      -34.243793       -3.355099
 H         -10.697793      -33.108261       -2.550203
 H          -9.392777      -34.763500       -4.003119
 H         -10.330480      -34.184914       -5.390308
