20
 generated by VMD
 C         -56.305290     -150.012604      -46.670029
 N         -56.934433     -150.508575      -45.860424
 H         -53.137413     -147.809326      -47.691734
 H         -55.687847     -149.441422      -47.356773
 C         -53.694782     -147.470306      -48.623302
 C         -52.978477     -147.860352      -49.869385
 C         -54.607697     -146.165070      -48.569275
 C         -53.910408     -147.641342      -51.020336
 C         -55.398769     -146.025665      -49.852947
 C         -54.474510     -146.318039      -51.097931
 H         -52.503223     -148.837799      -49.924015
 H         -52.075783     -147.167953      -50.097939
 H         -55.250641     -146.085144      -47.697670
 H         -53.933506     -145.324814      -48.330307
 H         -54.671001     -148.421097      -50.941051
 H         -53.338490     -147.908936      -51.962078
 H         -55.631802     -144.853134      -49.911343
 H         -56.224503     -146.669617      -49.877571
 H         -55.065079     -146.179184      -52.013309
 H         -53.645416     -145.557800      -51.122715
