20
 generated by VMD
 C         -68.172386     -185.908234      -67.575226
 N         -68.560928     -186.994492      -67.582787
 H         -68.585472     -187.777008      -64.666237
 H         -67.779472     -184.899185      -67.715858
 C         -69.249374     -187.584061      -63.846451
 C         -68.758018     -187.244293      -62.470192
 C         -70.683968     -187.688995      -64.215607
 C         -69.771141     -187.490891      -61.315765
 C         -71.399353     -188.345108      -63.035130
 C         -71.262161     -187.486069      -61.748329
 H         -68.816650     -186.113922      -62.475597
 H         -67.776939     -187.721481      -62.365227
 H         -71.142509     -186.707626      -64.435181
 H         -70.767509     -188.446701      -65.116165
 H         -69.668800     -186.869324      -60.400078
 H         -69.527245     -188.541382      -60.951172
 H         -70.971367     -189.332809      -62.979542
 H         -72.442139     -188.417557      -63.307648
 H         -71.614349     -186.414337      -61.855495
 H         -71.843719     -187.882614      -60.947918
