20
 generated by VMD
 C         -12.581087      -28.544783       -5.935091
 N         -13.185506      -27.671061       -5.620429
 H         -11.558724      -31.530853       -3.770831
 H         -11.244524      -29.983843       -4.782371
 C         -10.819438      -30.798918       -4.127692
 C          -9.735847      -31.653383       -4.890946
 C         -10.203937      -30.209980       -2.895266
 C          -8.634744      -30.615192       -5.333994
 C          -9.015448      -29.323702       -3.187959
 C          -7.954087      -30.118338       -4.041125
 H         -10.368564      -32.143955       -5.740863
 H          -9.379976      -32.394524       -4.203160
 H         -10.969410      -29.645784       -2.402666
 H          -9.958721      -31.062550       -2.224108
 H          -9.155153      -29.775213       -5.863872
 H          -7.848515      -31.078674       -6.014762
 H          -8.527548      -28.966671       -2.256754
 H          -9.358782      -28.473463       -3.751267
 H          -7.146597      -29.488379       -4.183824
 H          -7.625543      -30.992706       -3.478695
