20
 generated by VMD
 C         -70.595863     -182.042694      -63.836052
 N         -69.572403     -182.602585      -63.956676
 H         -68.872787     -180.616806      -61.350391
 H         -71.528328     -181.567245      -63.816998
 C         -67.838974     -180.634521      -61.238590
 C         -67.167633     -181.907837      -61.043789
 C         -67.328888     -179.308395      -60.683731
 C         -65.602913     -181.891541      -60.888672
 C         -65.764977     -179.244492      -60.827873
 C         -65.162598     -180.579819      -60.200970
 H         -67.407578     -182.699661      -61.765800
 H         -67.615150     -182.426331      -60.068558
 H         -67.808517     -178.434235      -60.938103
 H         -67.602013     -179.442627      -59.616009
 H         -65.132507     -181.789154      -61.828102
 H         -65.269684     -182.684402      -60.267906
 H         -65.308731     -178.424515      -60.247604
 H         -65.513008     -179.242554      -61.929989
 H         -64.105286     -180.621338      -60.054173
 H         -65.700188     -180.598099      -59.134293
