20
 generated by VMD
 C         -79.607079     -206.944397      -74.415688
 N         -80.328423     -206.027084      -74.457329
 H         -78.106178     -207.140274      -72.351753
 H         -78.786942     -207.634872      -74.494728
 C         -77.321365     -207.129868      -71.528442
 C         -76.020454     -206.309830      -71.552185
 C         -77.344994     -208.327057      -70.611725
 C         -75.378952     -206.086166      -70.137634
 C         -76.554016     -208.163010      -69.272110
 C         -75.286858     -207.410400      -69.375381
 H         -76.086182     -205.302216      -71.865730
 H         -75.343552     -206.915619      -72.163849
 H         -78.379974     -208.560577      -70.290230
 H         -76.924675     -209.220032      -71.190414
 H         -76.096428     -205.479050      -69.566780
 H         -74.488815     -205.441833      -70.192268
 H         -76.492699     -209.070236      -68.705017
 H         -77.178070     -207.465363      -68.598381
 H         -74.873940     -207.003937      -68.402748
 H         -74.546791     -208.043015      -69.768082
