20
 generated by VMD
 C         -10.346871      -25.243240       -0.772303
 N         -11.318870      -24.713064       -0.557643
 H          -6.516947      -25.517288       -0.943785
 H          -8.304563      -25.319149       -1.340676
 C          -7.232491      -25.163046       -1.714250
 C          -6.950886      -26.051878       -2.975945
 C          -6.968757      -23.668299       -2.023773
 C          -7.852001      -25.454933       -4.134283
 C          -7.870549      -23.124147       -3.164840
 C          -7.763464      -23.960255       -4.403126
 H          -7.077438      -27.141909       -2.758843
 H          -5.933446      -26.034506       -3.244416
 H          -7.140563      -23.089766       -1.124710
 H          -5.870200      -23.480007       -2.269974
 H          -8.860342      -25.681847       -3.863113
 H          -7.760458      -25.986523       -5.088880
 H          -7.676406      -22.045771       -3.304499
 H          -8.915479      -23.187027       -2.795331
 H          -8.490252      -23.656351       -5.144508
 H          -6.814801      -23.889536       -5.019236
