20
 generated by VMD
 C         -78.500076     -209.228088      -77.057823
 N         -78.127144     -209.335709      -78.148422
 H         -79.001640     -211.632172      -73.995071
 H         -78.830902     -209.119385      -76.073372
 C         -79.137283     -211.977066      -73.006851
 C         -77.893974     -212.042358      -72.186676
 C         -80.267654     -212.913910      -72.800072
 C         -78.284134     -212.498657      -70.773094
 C         -80.519241     -213.057770      -71.322990
 C         -79.366058     -213.619629      -70.654770
 H         -77.452438     -211.027969      -72.223572
 H         -77.057137     -212.642975      -72.553726
 H         -81.147934     -212.470764      -73.164177
 H         -79.995415     -213.913132      -73.228447
 H         -78.462112     -211.574493      -70.206734
 H         -77.413559     -212.921799      -70.303421
 H         -81.485886     -213.765320      -71.163109
 H         -80.787514     -212.091919      -70.933853
 H         -79.590775     -213.894943      -69.628670
 H         -79.038826     -214.529282      -71.097519
