20
 generated by VMD
 C         -11.968985      -39.456181       -6.487217
 N         -11.168162      -39.155457       -7.175283
 H         -12.830794      -41.091583       -9.082005
 H         -13.945483      -39.890015       -8.785757
 C         -13.878421      -40.982933       -9.020050
 C         -14.559801      -41.850151       -7.961727
 C         -14.458406      -41.201530      -10.460890
 C         -16.091671      -41.809517       -7.980738
 C         -16.039392      -41.023621      -10.404237
 C         -16.741936      -41.958214       -9.418893
 H         -14.263566      -41.619888       -6.949139
 H         -14.241158      -42.898384       -8.136611
 H         -14.113617      -40.475418      -11.188342
 H         -14.266911      -42.229042      -10.856092
 H         -16.377333      -40.831223       -7.514497
 H         -16.524549      -42.525715       -7.314845
 H         -16.406107      -41.232128      -11.461415
 H         -16.289062      -40.012180      -10.222641
 H         -17.751108      -41.609970       -9.360567
 H         -16.675240      -42.998959       -9.669919
