20
 generated by VMD
 C         -10.760695      -37.236073       -8.406674
 N         -10.811624      -36.343609       -7.705669
 H         -13.196308      -37.377594       -7.631727
 H         -14.342509      -38.052193       -6.420179
 C         -13.953404      -38.215984       -7.396802
 C         -13.091503      -39.500427       -7.363977
 C         -15.126685      -38.299473       -8.391942
 C         -13.953760      -40.799896       -7.290690
 C         -15.902092      -39.607922       -8.195402
 C         -15.031157      -40.863964       -8.331594
 H         -12.363031      -39.512215       -6.500789
 H         -12.398667      -39.614422       -8.252614
 H         -15.699139      -37.391033       -8.243308
 H         -14.770956      -38.180012       -9.390305
 H         -14.357600      -41.007950       -6.274790
 H         -13.292342      -41.639481       -7.339171
 H         -16.720505      -39.657017       -8.974298
 H         -16.375057      -39.601780       -7.225463
 H         -15.652531      -41.717876       -8.068654
 H         -14.684354      -40.981506       -9.352024
