20
 generated by VMD
 C         -30.763784      -75.075874      -22.701326
 N         -31.262432      -75.459274      -21.751566
 H         -28.790808      -77.367973      -21.818787
 H         -30.096029      -75.182411      -23.596294
 C         -27.794020      -77.045685      -21.607658
 C         -26.633333      -77.826126      -22.149792
 C         -27.491213      -75.950371      -20.632530
 C         -25.878822      -76.876495      -22.975317
 C         -26.590126      -74.905411      -21.428043
 C         -25.451921      -75.620193      -22.127058
 H         -27.165405      -78.627510      -22.718552
 H         -26.005116      -78.128288      -21.322945
 H         -28.333656      -75.518463      -20.201393
 H         -26.937420      -76.308601      -19.799593
 H         -26.357588      -76.606186      -23.966684
 H         -24.903498      -77.331917      -23.274694
 H         -26.015850      -74.251335      -20.784140
 H         -27.197609      -74.305878      -22.194071
 H         -24.993469      -74.909073      -22.806660
 H         -24.713707      -76.105606      -21.396444
