20
 generated by VMD
 C         -27.585339      -81.413521      -26.956022
 N         -28.352188      -81.982025      -27.649166
 H         -30.418985      -83.810265      -26.068096
 H         -27.105570      -80.944046      -26.165155
 C         -31.007521      -84.229607      -25.286469
 C         -30.708298      -84.292107      -23.840933
 C         -31.653618      -85.498940      -25.640194
 C         -31.744774      -84.646576      -22.874132
 C         -32.807831      -86.069794      -24.801958
 C         -32.351677      -86.113655      -23.316093
 H         -30.333364      -83.237038      -23.557333
 H         -29.845842      -84.928261      -23.821573
 H         -32.151459      -85.249176      -26.653893
 H         -30.919102      -86.310822      -25.934473
 H         -32.708405      -84.016762      -23.011427
 H         -31.389963      -84.650513      -21.882681
 H         -33.055683      -86.969612      -25.281958
 H         -33.664772      -85.352615      -24.997641
 H         -33.195625      -86.456345      -22.700287
 H         -31.623631      -86.860725      -23.264004
