20
 generated by VMD
 C         -30.235132      -92.871475      -25.097845
 N         -30.344458      -93.782578      -25.807484
 H         -33.564362      -91.123627      -26.353952
 H         -30.259396      -92.040146      -24.503134
 C         -33.892029      -91.339211      -27.396093
 C         -35.070435      -92.170609      -27.603474
 C         -33.248966      -90.728470      -28.576096
 C         -36.109852      -91.577400      -28.570208
 C         -34.291904      -90.106453      -29.483898
 C         -35.314251      -91.154015      -29.850027
 H         -35.799709      -92.383438      -26.650829
 H         -34.694080      -93.171791      -27.976891
 H         -32.437160      -90.044548      -28.235071
 H         -32.738647      -91.492371      -29.168203
 H         -36.506851      -90.668152      -28.114882
 H         -36.971428      -92.239464      -28.878078
 H         -33.699711      -89.751282      -30.280712
 H         -34.633072      -89.244125      -28.883924
 H         -36.182434      -90.745850      -30.437788
 H         -34.859520      -91.992241      -30.389893
