20
 generated by VMD
 C         -11.956676      -31.527712       -8.278640
 N         -12.089893      -30.643167       -7.580670
 H         -11.462694      -34.866451       -7.860752
 H         -12.723158      -34.066364       -7.051268
 C         -11.881134      -34.650288       -6.873384
 C         -10.831593      -34.018108       -6.012400
 C         -12.186002      -36.055904       -6.350729
 C         -11.264723      -33.770187       -4.621391
 C         -12.601091      -35.932446       -4.867043
 C         -11.523927      -35.121243       -3.991328
 H         -10.545613      -33.130116       -6.503629
 H          -9.938534      -34.662197       -6.009991
 H         -12.959499      -36.497974       -6.961423
 H         -11.295244      -36.699127       -6.490192
 H         -12.032879      -32.978180       -4.456224
 H         -10.415006      -33.397728       -4.031514
 H         -12.700515      -36.888542       -4.373379
 H         -13.620542      -35.398991       -4.721552
 H         -11.858486      -35.020714       -2.981965
 H         -10.561238      -35.721432       -3.969405
