20
 generated by VMD
 C         -13.712656      -42.919460       -6.005142
 N         -12.878117      -43.123112       -6.693400
 H         -15.021999      -45.007168       -8.787848
 H         -14.320975      -43.626209       -9.723487
 C         -15.174537      -44.286766       -9.678971
 C         -16.477581      -43.590134       -9.304007
 C         -15.271220      -45.100098      -11.013293
 C         -16.851406      -42.684536      -10.486470
 C         -15.814507      -44.214226      -12.064364
 C         -17.131731      -43.555923      -11.719484
 H         -16.359407      -43.073471       -8.355581
 H         -17.243593      -44.310413       -9.269797
 H         -14.249897      -45.396000      -11.307339
 H         -15.972486      -45.912418      -10.783655
 H         -16.043486      -41.976749      -10.707640
 H         -17.751797      -42.095890      -10.260816
 H         -15.994387      -44.804157      -13.015390
 H         -15.107170      -43.484211      -12.364646
 H         -17.495235      -42.851871      -12.553404
 H         -17.947327      -44.309490      -11.630369
