20
 generated by VMD
 C         -30.195423      -92.782616      -25.188602
 N         -30.605206      -93.659767      -25.836309
 H         -33.176205      -91.539642      -26.551634
 H         -29.659128      -91.936043      -24.610947
 C         -33.792786      -91.298187      -27.396008
 C         -35.014919      -92.161285      -27.437284
 C         -33.155365      -90.616135      -28.591875
 C         -36.052586      -91.657249      -28.499861
 C         -34.276627      -90.002136      -29.472740
 C         -35.322281      -91.110260      -29.795864
 H         -35.725601      -92.226509      -26.543970
 H         -34.624905      -93.198471      -27.666597
 H         -32.602322      -89.794044      -28.105560
 H         -32.505070      -91.209167      -29.218973
 H         -36.773674      -90.950455      -28.136154
 H         -36.621300      -92.566910      -28.920305
 H         -33.611065      -89.759598      -30.295307
 H         -34.574852      -89.078789      -28.955709
 H         -36.168301      -90.749779      -30.355137
 H         -34.793812      -91.880867      -30.354706
