20
 generated by VMD
 C         -10.739135      -33.055962       -8.739467
 N         -10.925959      -33.975861       -9.343863
 H         -12.865848      -33.998413       -6.352501
 H         -13.112961      -34.911076       -4.812694
 C         -12.998534      -35.005802       -5.907360
 C         -11.659300      -35.731895       -6.147978
 C         -14.200256      -35.809891       -6.337019
 C         -11.771133      -37.150818       -5.551271
 C         -14.200897      -37.235020       -5.782427
 C         -12.928705      -37.966015       -6.104643
 H         -10.828996      -35.118000       -5.709353
 H         -11.459847      -35.813831       -7.228712
 H         -15.091416      -35.229553       -6.250628
 H         -14.106991      -35.906357       -7.448570
 H         -11.979876      -37.144501       -4.508007
 H         -10.866078      -37.752125       -5.728201
 H         -15.002153      -37.783699       -6.264450
 H         -14.420119      -37.268028       -4.655840
 H         -12.844075      -39.005997       -5.690578
 H         -12.800388      -38.138737       -7.191236
