20
 generated by VMD
 C         -68.613892     -185.357117      -67.045135
 N         -67.689804     -184.670456      -67.001976
 H         -68.925621     -188.294250      -64.698769
 H         -69.440758     -186.100693      -67.133965
 C         -69.368629     -187.888031      -63.817978
 C         -69.401779     -186.415039      -63.812996
 C         -70.299110     -188.595428      -62.819714
 C         -69.564484     -185.827225      -62.412151
 C         -70.342529     -187.971695      -61.407887
 C         -70.477463     -186.514053      -61.391022
 H         -70.220634     -186.042923      -64.371536
 H         -68.593002     -185.987869      -64.289101
 H         -71.245636     -188.734161      -63.332970
 H         -69.945358     -189.645615      -62.698696
 H         -70.001083     -184.819336      -62.629719
 H         -68.598480     -185.560944      -61.946697
 H         -69.386383     -188.081940      -60.923985
 H         -71.190292     -188.420609      -60.949116
 H         -71.530197     -186.222137      -61.512711
 H         -70.159737     -186.149033      -60.254242
