20
 generated by VMD
 C         -69.460762     -181.294128      -61.202488
 N         -69.441887     -180.196976      -61.597721
 H         -67.377136     -178.723419      -59.632294
 H         -69.560410     -182.267136      -60.812870
 C         -66.378792     -178.539871      -59.820213
 C         -65.594666     -178.868530      -61.155602
 C         -65.524666     -177.769821      -58.830082
 C         -65.122955     -177.617569      -61.742500
 C         -65.182983     -176.433090      -59.445927
 C         -64.437645     -176.692764      -60.768150
 H         -66.194824     -179.607605      -61.730579
 H         -64.803169     -179.460175      -60.705971
 H         -66.161438     -177.545227      -57.899033
 H         -64.638420     -178.249557      -58.538303
 H         -66.123131     -177.118637      -62.165173
 H         -64.477257     -177.786026      -62.681602
 H         -64.635666     -175.693741      -58.885788
 H         -66.210365     -176.013245      -59.572353
 H         -64.333275     -175.676132      -61.184086
 H         -63.499981     -176.992584      -60.537296
