20
 generated by VMD
 C         -43.960987     -121.527115      -36.111012
 N         -43.727989     -120.550194      -35.540272
 H         -44.845459     -122.567719      -39.416458
 H         -44.238598     -122.424004      -36.645660
 C         -44.715290     -121.426117      -39.342960
 C         -43.386864     -120.868515      -39.792160
 C         -45.866219     -120.577484      -38.877754
 C         -43.278736     -119.438705      -40.186012
 C         -45.766724     -119.129089      -39.435303
 C         -44.339546     -118.545143      -39.345089
 H         -42.972321     -121.485825      -40.624058
 H         -42.621361     -120.936577      -38.909538
 H         -46.822182     -120.868958      -39.311314
 H         -45.966076     -120.752174      -37.790615
 H         -43.621548     -119.439400      -41.200451
 H         -42.270344     -119.159622      -40.197601
 H         -46.416321     -118.542076      -38.823048
 H         -46.153790     -119.109390      -40.413422
 H         -44.270985     -117.612793      -39.850548
 H         -44.088898     -118.586540      -38.253685
