20
 generated by VMD
 C         -38.714409     -113.606255      -35.861248
 N         -37.695160     -114.141464      -35.909275
 H         -41.346321     -115.133484      -35.703548
 H         -39.564171     -112.891258      -35.967560
 C         -42.214901     -114.585854      -36.075623
 C         -42.413044     -114.358322      -37.462841
 C         -43.390709     -114.276581      -35.229317
 C         -43.498230     -115.316284      -37.972126
 C         -44.703186     -114.987915      -35.731056
 C         -44.874977     -115.080032      -37.242970
 H         -41.595829     -114.671288      -38.071426
 H         -42.736492     -113.348015      -37.699062
 H         -43.022564     -114.414253      -34.248898
 H         -43.504185     -113.223022      -35.299473
 H         -43.210361     -116.337997      -37.683372
 H         -43.712784     -115.306816      -39.075062
 H         -45.643326     -114.503189      -35.474781
 H         -44.572803     -115.931664      -35.208672
 H         -45.518913     -115.950180      -37.437984
 H         -45.259953     -114.103615      -37.835796
