20
 generated by VMD
 C         -19.904961      -59.011349      -17.292580
 N         -19.307150      -58.876225      -18.264421
 H         -22.754238      -59.590683      -16.301382
 H         -20.490541      -59.022881      -16.471977
 C         -22.763805      -60.727226      -16.161530
 C         -23.482309      -61.542652      -17.158268
 C         -22.660994      -61.318813      -14.768991
 C         -23.134987      -63.094368      -17.120445
 C         -22.410934      -62.805706      -14.682861
 C         -23.250261      -63.653435      -15.726149
 H         -23.341896      -61.165630      -18.125954
 H         -24.442699      -61.454319      -16.806681
 H         -21.780294      -60.911606      -14.113387
 H         -23.705015      -61.198830      -14.403850
 H         -22.143835      -63.325802      -17.578278
 H         -23.817360      -63.680988      -17.836142
 H         -22.864080      -63.033245      -13.671248
 H         -21.307699      -62.976147      -14.788113
 H         -22.910837      -64.712112      -15.631077
 H         -24.303965      -63.711590      -15.319923
