20
 generated by VMD
 C         -22.729578      -55.534538      -16.775635
 N         -23.080935      -54.430965      -16.926222
 H         -19.318136      -55.665817      -14.958344
 H         -22.413761      -56.610210      -16.786448
 C         -19.709318      -56.661186      -14.596993
 C         -20.691957      -57.041233      -13.543036
 C         -18.843266      -57.669704      -15.171639
 C         -20.939129      -58.486286      -13.429047
 C         -19.163345      -59.100182      -14.819566
 C         -19.657509      -59.178303      -13.445066
 H         -21.630486      -56.642311      -13.864928
 H         -20.481718      -56.570030      -12.594431
 H         -18.839273      -57.496845      -16.206034
 H         -17.777641      -57.474121      -14.914311
 H         -21.612724      -58.817226      -14.199215
 H         -21.487030      -58.709705      -12.498596
 H         -18.277563      -59.676289      -14.917217
 H         -19.941742      -59.408146      -15.549766
 H         -19.767479      -60.256355      -13.284567
 H         -18.991173      -58.814804      -12.606640
