20
 generated by VMD
 C         -68.236443     -194.356155      -66.273476
 N         -67.732559     -194.310608      -65.231087
 H         -70.835663     -191.539978      -67.243401
 H         -68.697517     -194.337448      -67.246140
 C         -71.465858     -191.301910      -66.399971
 C         -72.477112     -190.191589      -66.496910
 C         -71.522903     -192.291733      -65.297615
 C         -73.872803     -190.703125      -66.356010
 C         -72.859673     -192.189072      -64.553787
 C         -74.047737     -191.955429      -65.515099
 H         -72.225372     -189.577698      -67.371773
 H         -72.262062     -189.605072      -65.549156
 H         -71.429779     -193.311630      -65.538826
 H         -70.700294     -192.018280      -64.602325
 H         -74.325119     -190.868729      -67.364983
 H         -74.542435     -190.050049      -65.745117
 H         -72.886307     -191.469910      -63.700104
 H         -73.060455     -193.127777      -64.019791
 H         -74.262550     -192.904465      -66.175430
 H         -74.915909     -191.876938      -64.981537
