20
 generated by VMD
 C         -60.374596     -170.137680      -55.047447
 N         -59.238304     -170.086838      -55.441090
 H         -63.700443     -170.758621      -57.059856
 H         -61.430775     -170.107178      -54.783474
 C         -63.477943     -169.697235      -57.056026
 C         -62.429352     -169.033752      -57.889233
 C         -64.253876     -168.748184      -56.183662
 C         -63.106483     -167.867966      -58.684082
 C         -64.807915     -167.625504      -57.055485
 C         -63.811268     -166.879395      -57.844090
 H         -61.882812     -169.642807      -58.646744
 H         -61.653896     -168.551392      -57.168804
 H         -65.162933     -169.138931      -55.546616
 H         -63.531063     -168.333344      -55.435497
 H         -63.666134     -168.445374      -59.333549
 H         -62.458054     -167.397095      -59.375488
 H         -65.458199     -166.997513      -56.395885
 H         -65.568474     -168.177414      -57.795731
 H         -64.366280     -166.211243      -58.475510
 H         -63.117321     -166.215195      -57.283028
