20
 generated by VMD
 C         -29.384069      -87.965805      -24.980639
 N         -28.869192      -88.140999      -26.012264
 H         -31.261887      -89.110222      -27.347250
 H         -29.831369      -88.006142      -23.950769
 C         -32.277199      -89.492958      -27.230698
 C         -32.841614      -89.461624      -25.859215
 C         -33.365593      -89.289711      -28.367144
 C         -33.435173      -88.106140      -25.756763
 C         -34.114906      -88.080513      -28.161715
 C         -34.645054      -87.958893      -26.683115
 H         -31.975084      -89.540657      -25.173761
 H         -33.671680      -90.177399      -25.840082
 H         -32.808643      -89.461121      -29.347225
 H         -34.096394      -90.090775      -28.200880
 H         -32.831242      -87.264084      -25.965513
 H         -33.693214      -87.956902      -24.726614
 H         -34.972099      -88.032623      -28.837051
 H         -33.556427      -87.126549      -28.305517
 H         -35.278328      -87.038315      -26.477531
 H         -35.297520      -88.844246      -26.551462
