20
 generated by VMD
 C         -79.494675     -205.391525      -71.758949
 N         -79.791359     -206.467041      -71.576447
 H         -77.134087     -204.038834      -71.821671
 H         -79.351471     -204.368195      -71.673508
 C         -76.403191     -204.171265      -71.060234
 C         -75.472000     -203.021988      -70.810005
 C         -76.467430     -205.357559      -70.162514
 C         -74.180107     -203.466187      -70.035294
 C         -75.220184     -205.419907      -69.134651
 C         -73.864388     -204.888901      -69.754951
 H         -76.089127     -202.232574      -70.304108
 H         -75.226265     -202.663208      -71.809357
 H         -77.478172     -205.349686      -69.671722
 H         -76.446014     -206.249557      -70.785721
 H         -74.088577     -202.832550      -69.095741
 H         -73.379387     -202.960556      -70.717506
 H         -75.174156     -206.450211      -68.832565
 H         -75.348076     -204.848969      -68.210541
 H         -73.000839     -204.899078      -68.989441
 H         -73.532875     -205.449387      -70.643417
