20
 generated by VMD
 C         -54.579716     -148.269928      -45.271446
 N         -54.503216     -148.427811      -44.122807
 H         -54.486748     -148.138138      -49.035633
 H         -54.756054     -148.033997      -46.335793
 C         -54.461723     -147.069046      -49.241016
 C         -53.189354     -146.723282      -50.013710
 C         -55.071056     -145.915985      -48.492935
 C         -53.313072     -145.464645      -50.905560
 C         -55.121895     -144.643478      -49.314930
 C         -53.791039     -144.349869      -50.052975
 H         -53.139030     -147.591507      -50.654881
 H         -52.246014     -146.702286      -49.418808
 H         -56.056019     -146.211060      -47.998005
 H         -54.362785     -145.693817      -47.615189
 H         -53.915733     -145.671844      -51.803833
 H         -52.242798     -145.279007      -51.197533
 H         -55.310314     -143.800980      -48.617630
 H         -56.086716     -144.681824      -50.020550
 H         -53.840019     -143.395218      -50.728199
 H         -53.143921     -144.284927      -49.110062
