20
 generated by VMD
 C         -22.011063      -52.270496      -11.502198
 N         -21.829315      -52.824902      -10.460047
 H         -19.918364      -52.080730      -14.239306
 H         -21.886412      -51.657837      -12.375482
 C         -18.905661      -51.980762      -13.780058
 C         -17.938862      -51.727737      -14.872649
 C         -18.620470      -51.927101      -12.345081
 C         -16.497843      -52.024231      -14.521159
 C         -17.150246      -51.523914      -12.103058
 C         -16.163342      -52.132927      -13.048239
 H         -17.969397      -50.640129      -15.175472
 H         -18.131935      -52.343796      -15.749132
 H         -19.188070      -51.125908      -11.824046
 H         -18.915047      -52.908649      -11.903942
 H         -15.812073      -51.378437      -15.053911
 H         -16.212395      -53.019855      -14.883586
 H         -16.933420      -51.770241      -11.049644
 H         -17.009657      -50.472767      -12.183850
 H         -15.154066      -51.800381      -12.875283
 H         -16.051298      -53.151295      -12.716609
