20
 generated by VMD
 C         -57.885910     -167.848801      -55.239552
 N         -56.867905     -168.235977      -54.948849
 H         -60.910503     -166.287857      -55.733677
 H         -58.860584     -167.514771      -55.450748
 C         -61.990257     -166.400894      -55.938236
 C         -62.474274     -167.280136      -57.110985
 C         -62.960083     -165.299484      -55.589588
 C         -64.001038     -167.398071      -57.362820
 C         -64.439590     -165.484421      -55.795086
 C         -64.688896     -166.044647      -57.122807
 H         -62.179298     -168.256531      -57.114388
 H         -61.909081     -166.914490      -58.118210
 H         -62.846428     -165.055206      -54.585003
 H         -62.606186     -164.452545      -56.255978
 H         -64.367920     -168.109634      -56.618587
 H         -64.171570     -167.747574      -58.380951
 H         -65.062469     -164.639786      -55.642384
 H         -64.809143     -166.144318      -55.057911
 H         -65.806931     -166.155350      -57.366108
 H         -64.327560     -165.483063      -58.018238
