20
 generated by VMD
 C         -14.981219      -45.615013       -6.945973
 N         -14.560424      -46.636574       -6.931348
 H         -15.518632      -44.163303       -9.018210
 H         -14.542391      -44.359474      -10.588531
 C         -15.565048      -44.403751      -10.099795
 C         -16.451820      -43.387054      -10.841004
 C         -15.964568      -45.840427      -10.168669
 C         -16.652569      -43.796417      -12.298739
 C         -16.263496      -46.108212      -11.621596
 C         -17.263191      -45.145969      -12.375003
 H         -16.069151      -42.383846      -10.728599
 H         -17.489571      -43.460796      -10.449112
 H         -15.063293      -46.446842       -9.922484
 H         -16.826832      -46.107597       -9.527318
 H         -15.693933      -43.719772      -12.797026
 H         -17.311110      -43.051376      -12.758839
 H         -16.655720      -47.121826      -11.696237
 H         -15.316219      -46.146458      -12.245312
 H         -17.389353      -45.449078      -13.445829
 H         -18.329016      -45.278374      -11.964153
