20
 generated by VMD
 C         -47.921421     -134.311554      -47.402531
 N         -48.038383     -133.680008      -48.330608
 H         -49.717979     -134.235748      -44.058544
 H         -47.934319     -135.082703      -46.628849
 C         -50.260998     -135.146942      -43.830990
 C         -50.463863     -136.269196      -44.789040
 C         -51.181873     -134.906540      -42.708641
 C         -50.711330     -137.562119      -43.995735
 C         -51.369953     -136.241547      -41.893715
 C         -51.738174     -137.429733      -42.845894
 H         -49.624958     -136.539032      -45.561317
 H         -51.387081     -136.113220      -45.313904
 H         -50.501953     -134.211075      -42.130360
 H         -52.156563     -134.354767      -42.971443
 H         -49.739792     -137.876831      -43.553280
 H         -51.075912     -138.430283      -44.552898
 H         -52.040310     -136.122986      -41.041702
 H         -50.465393     -136.447632      -41.378109
 H         -51.693489     -138.327072      -42.262791
 H         -52.799473     -137.148743      -43.235245
