20
 generated by VMD
 C         -79.982597     -206.918732      -74.087997
 N         -80.459473     -206.247696      -74.898193
 H         -77.835945     -206.603546      -71.940346
 H         -79.471016     -207.603638      -73.505280
 C         -77.027855     -207.300461      -71.815979
 C         -75.601929     -206.666870      -71.545235
 C         -77.195488     -208.545441      -70.955002
 C         -75.398422     -206.296661      -70.071053
 C         -76.973221     -208.310410      -69.482635
 C         -75.733597     -207.522827      -69.143417
 H         -75.545471     -205.927078      -72.319641
 H         -74.828857     -207.449646      -71.654205
 H         -78.138420     -209.077744      -71.035576
 H         -76.355598     -209.212784      -71.249893
 H         -76.018257     -205.439163      -69.738136
 H         -74.341133     -206.124130      -69.922958
 H         -76.851524     -209.227066      -68.946495
 H         -77.908272     -207.802750      -69.050774
 H         -76.002724     -207.272476      -68.086464
 H         -74.959274     -208.208694      -69.059052
