20
 generated by VMD
 C          -1.723210      -16.778624        2.173919
 N          -1.544719      -17.494041        3.007567
 H          -5.198093      -16.688633        0.723879
 H          -4.887698      -17.906326       -0.538356
 C          -5.686891      -17.374359        0.065451
 C          -6.403001      -16.597006       -1.061144
 C          -6.597482      -18.385117        0.720610
 C          -7.080029      -17.456366       -2.064101
 C          -7.371635      -19.281509       -0.269916
 C          -8.098239      -18.432026       -1.347075
 H          -5.634302      -15.892390       -1.488588
 H          -7.120745      -15.954765       -0.607733
 H          -6.086169      -18.960762        1.401992
 H          -7.329144      -17.919180        1.332136
 H          -6.371060      -18.087046       -2.664643
 H          -7.623662      -16.840302       -2.749648
 H          -8.161422      -19.883451        0.247465
 H          -6.705111      -20.016989       -0.742025
 H          -8.402476      -19.121216       -2.133865
 H          -8.980552      -17.871271       -0.924307
