20
 generated by VMD
 C         -77.390701     -202.958298      -68.639015
 N         -77.560104     -203.885315      -68.033882
 H         -75.350655     -201.571350      -67.330879
 H         -77.109665     -201.942444      -69.001610
 C         -74.783447     -201.089737      -68.205261
 C         -75.086876     -199.669556      -68.573654
 C         -73.798203     -201.896271      -69.063347
 C         -74.326492     -199.067413      -69.665085
 C         -73.112473     -201.004456      -70.161636
 C         -73.934036     -200.067627      -70.848831
 H         -75.137680     -199.048508      -67.721756
 H         -76.187347     -199.696152      -68.839149
 H         -73.059608     -202.397797      -68.361168
 H         -74.451706     -202.570328      -69.581116
 H         -73.290047     -198.666321      -69.420364
 H         -74.870644     -198.197128      -70.111641
 H         -72.738731     -201.598587      -71.062912
 H         -72.117859     -200.639771      -69.713478
 H         -73.528687     -199.560226      -71.653549
 H         -74.851807     -200.558090      -71.331680
