20
 generated by VMD
 C         -33.837944      -97.074974      -26.241541
 N         -34.861324      -97.010033      -25.705069
 H         -35.498142      -93.877907      -27.470642
 H         -32.964020      -97.354462      -26.720968
 C         -35.176792      -94.056076      -28.499113
 C         -36.035744      -94.842148      -29.460117
 C         -33.730705      -93.647179      -28.979521
 C         -35.971485      -94.121162      -30.846262
 C         -33.731346      -93.093018      -30.354136
 C         -34.516724      -94.002258      -31.324160
 H         -37.035797      -94.803810      -29.142948
 H         -35.808033      -95.907219      -29.606350
 H         -33.290051      -92.922401      -28.268011
 H         -33.165134      -94.572128      -28.795753
 H         -36.390270      -93.117218      -30.804298
 H         -36.640385      -94.713013      -31.588539
 H         -32.808430      -92.977661      -30.847445
 H         -34.226246      -92.105949      -30.157406
 H         -34.697777      -93.490868      -32.202824
 H         -34.022949      -94.945831      -31.438488
