20
 generated by VMD
 C         -68.885895     -184.619415      -66.067772
 N         -69.551926     -185.462631      -66.466461
 H         -69.404335     -183.238937      -63.824818
 H         -68.272415     -183.796677      -65.605026
 C         -69.009262     -183.670685      -62.939030
 C         -69.799728     -184.889420      -62.395092
 C         -68.021049     -183.013702      -62.129639
 C         -68.990227     -185.875092      -61.464336
 C         -67.217949     -184.015167      -61.375645
 C         -68.177658     -184.947586      -60.580635
 H         -70.235390     -185.305344      -63.273594
 H         -70.590118     -184.424911      -61.751888
 H         -67.423805     -182.320557      -62.799576
 H         -68.395538     -182.393097      -61.259483
 H         -68.324738     -186.497025      -62.011974
 H         -69.679459     -186.553177      -60.998165
 H         -66.378731     -183.437363      -60.845669
 H         -66.617332     -184.682388      -61.994797
 H         -67.423767     -185.567917      -59.954048
 H         -68.787445     -184.324753      -59.763176
