20
 generated by VMD
 C         -11.616861      -41.971485       -6.585104
 N         -11.173279      -41.017784       -6.904258
 H         -14.494904      -40.765110       -8.489269
 H         -15.411849      -40.310940       -9.897909
 C         -15.186495      -41.174622       -9.196945
 C         -16.391470      -41.844635       -8.538987
 C         -14.467534      -42.202045      -10.067215
 C         -17.396454      -42.409714       -9.511926
 C         -15.416931      -42.795120      -11.107950
 C         -16.664423      -43.413334      -10.429530
 H         -16.857534      -41.053646       -7.908458
 H         -15.961603      -42.663284       -7.868483
 H         -13.607471      -41.780251      -10.577437
 H         -14.193229      -43.139820       -9.493445
 H         -17.775925      -41.589500      -10.113081
 H         -18.163645      -42.934761       -8.902153
 H         -14.898978      -43.526180      -11.825109
 H         -15.705142      -42.032547      -11.762117
 H         -17.317295      -43.887566      -11.154325
 H         -16.377516      -44.277943       -9.821767
