20
 generated by VMD
 C         -68.247269     -185.333221      -67.655945
 N         -67.621239     -185.340332      -66.669876
 H         -69.487152     -186.691040      -64.883705
 H         -68.891220     -185.240631      -68.544067
 C         -69.746864     -186.707428      -63.829041
 C         -70.344765     -185.522842      -63.245575
 C         -69.565399     -187.938568      -62.991737
 C         -70.159729     -185.264877      -61.728813
 C         -69.008049     -187.504807      -61.596603
 C         -69.909996     -186.519516      -60.836868
 H         -71.436592     -185.458984      -63.532421
 H         -69.859558     -184.649933      -63.662411
 H         -70.648239     -188.238358      -62.949677
 H         -68.948875     -188.684692      -63.521099
 H         -71.066391     -184.766724      -61.328148
 H         -69.345634     -184.589081      -61.647015
 H         -67.859688     -187.298477      -61.667698
 H         -69.002220     -188.447464      -60.970325
 H         -71.004837     -186.863037      -60.510551
 H         -69.471474     -186.225830      -59.845337
