20
 generated by VMD
 C         -70.709534     -181.870224      -63.972321
 N         -69.728615     -182.513168      -63.812183
 H         -68.756721     -180.716171      -61.590782
 H         -71.621002     -181.237625      -64.139114
 C         -67.803711     -180.719498      -61.059948
 C         -66.939110     -181.916534      -60.717567
 C         -67.329346     -179.275665      -60.737919
 C         -65.385796     -181.694305      -61.051338
 C         -65.800812     -179.117966      -60.701118
 C         -65.083282     -180.358673      -60.188236
 H         -67.228752     -182.829330      -61.161591
 H         -66.965172     -182.087570      -59.711113
 H         -67.824661     -178.507767      -61.517227
 H         -67.895798     -179.094955      -59.830414
 H         -65.091782     -181.364594      -62.064674
 H         -64.640068     -182.454803      -60.710972
 H         -65.499100     -178.238220      -60.099030
 H         -65.468491     -178.829498      -61.685982
 H         -63.991215     -180.233734      -60.429272
 H         -65.205040     -180.393921      -59.166000
