20
 generated by VMD
 C         -79.719437     -205.379181      -71.194839
 N         -80.224113     -206.378601      -71.445633
 H         -77.325478     -203.005951      -70.452873
 H         -79.293381     -204.501572      -70.667007
 C         -76.332954     -203.358856      -70.318008
 C         -75.233704     -202.273224      -70.358864
 C         -75.968422     -204.746719      -70.045288
 C         -73.820686     -202.973770      -70.574966
 C         -74.684494     -204.859161      -69.251419
 C         -73.395607     -203.968246      -69.473740
 H         -75.220238     -201.683258      -69.427277
 H         -75.314720     -201.587967      -71.231689
 H         -76.812805     -205.393448      -69.585052
 H         -75.793472     -205.247742      -71.093575
 H         -73.172676     -202.107864      -70.578026
 H         -73.747223     -203.312088      -71.590553
 H         -74.430145     -205.855148      -69.343750
 H         -74.963173     -204.778671      -68.157852
 H         -73.037560     -203.518280      -68.580482
 H         -72.569374     -204.588547      -69.800537
