20
 generated by VMD
 C         -73.844261     -200.451492      -65.656090
 N         -73.212914     -201.117233      -64.934349
 H         -72.367645     -197.524033      -66.596581
 H         -74.433945     -199.824295      -66.394218
 C         -72.870140     -196.989594      -67.410965
 C         -73.797203     -195.941116      -67.261215
 C         -72.729950     -197.600235      -68.710182
 C         -73.921761     -195.080795      -68.570999
 C         -73.805359     -197.286179      -69.798164
 C         -74.509773     -195.930389      -69.704315
 H         -73.499619     -195.224731      -66.621948
 H         -74.756256     -196.449860      -66.939056
 H         -71.795609     -197.160965      -69.119705
 H         -72.538109     -198.694687      -68.637741
 H         -72.898682     -194.802948      -68.860146
 H         -74.455635     -194.106735      -68.410675
 H         -74.660088     -197.959473      -69.583321
 H         -73.427887     -197.451614      -70.803879
 H         -74.430969     -195.208115      -70.575089
 H         -75.508492     -196.014847      -69.465500
