20
 generated by VMD
 C         -77.258919     -203.588074      -67.115677
 N         -77.988914     -204.377533      -66.670052
 H         -75.851830     -200.672974      -68.924355
 H         -76.500343     -202.798584      -67.378235
 C         -74.823891     -200.204514      -68.973618
 C         -74.726601     -198.755829      -68.531929
 C         -73.719002     -200.984543      -69.640465
 C         -73.660294     -198.083328      -69.311348
 C         -72.792984     -200.203903      -70.477127
 C         -73.305183     -198.755127      -70.674156
 H         -74.527161     -198.598785      -67.467262
 H         -75.670807     -198.384857      -68.743469
 H         -73.327461     -201.524124      -68.755630
 H         -74.243057     -201.780853      -70.128799
 H         -72.691956     -198.041519      -68.740944
 H         -73.975105     -197.027985      -69.563553
 H         -72.585297     -200.570786      -71.467346
 H         -71.797874     -200.177383      -69.975700
 H         -72.554947     -198.131653      -71.302925
 H         -74.106216     -198.874084      -71.341087
