20
 generated by VMD
 C         -30.092072      -76.023064      -23.193146
 N         -30.895916      -75.594124      -23.938450
 H         -29.028301      -79.022583      -21.520386
 H         -29.679710      -76.182846      -22.144737
 C         -28.380659      -78.098015      -21.632048
 C         -27.602919      -78.117989      -22.927776
 C         -27.675446      -77.653442      -20.393074
 C         -26.709368      -76.846680      -23.226496
 C         -26.881241      -76.287727      -20.632833
 C         -25.939121      -76.460655      -21.946194
 H         -28.360519      -78.091873      -23.726032
 H         -27.044184      -78.990837      -22.898605
 H         -28.504379      -77.418747      -19.610197
 H         -27.033657      -78.418800      -20.000690
 H         -27.224119      -75.972992      -23.628229
 H         -26.000996      -77.242035      -23.962793
 H         -26.293312      -76.011261      -19.766598
 H         -27.465736      -75.376656      -21.022051
 H         -25.573610      -75.451035      -22.194901
 H         -25.107872      -77.148972      -21.675634
