20
 generated by VMD
 C          -1.449803      -11.600299        1.568663
 N          -1.129812      -12.277966        0.778666
 H          -3.756166      -13.110841        0.472382
 H          -5.419007      -12.812181        0.792876
 C          -4.680224      -13.628752        0.904069
 C          -4.334064      -13.877412        2.401580
 C          -4.876203      -14.918976        0.119383
 C          -5.533668      -14.645524        3.061842
 C          -5.940959      -15.752734        0.776723
 C          -5.786651      -15.925986        2.260447
 H          -4.241130      -12.956332        2.948855
 H          -3.434527      -14.467419        2.516580
 H          -5.157443      -14.702092       -0.993542
 H          -3.916479      -15.564243        0.080343
 H          -6.419240      -14.049511        2.950934
 H          -5.447330      -14.823711        4.125565
 H          -5.976400      -16.715181        0.303794
 H          -6.878312      -15.226195        0.557519
 H          -6.661279      -16.521437        2.632221
 H          -4.873482      -16.596046        2.411116
