20
 generated by VMD
 C         -41.102261     -104.585373      -35.814014
 N         -42.060715     -104.889679      -36.380234
 H         -38.068439     -103.961632      -33.337196
 H         -40.311024     -104.058372      -35.284660
 C         -38.054661     -104.922508      -32.939224
 C         -36.897903     -105.383774      -32.161526
 C         -39.113258     -105.944458      -33.268524
 C         -37.232975     -106.589836      -31.249626
 C         -39.331043     -107.119881      -32.168911
 C         -38.074200     -107.682877      -31.740108
 H         -36.691769     -104.599037      -31.490450
 H         -36.006992     -105.628174      -32.712231
 H         -39.981831     -105.433861      -33.559593
 H         -38.719109     -106.463654      -34.211143
 H         -37.493633     -106.031319      -30.305527
 H         -36.280842     -107.043373      -30.873455
 H         -40.023293     -107.874985      -32.515606
 H         -39.828999     -106.567108      -31.301254
 H         -38.310921     -108.346428      -30.833044
 H         -37.664047     -108.322533      -32.493145
