20
 generated by VMD
 C         -49.371243     -127.033203      -40.099327
 N         -49.774445     -127.032494      -39.002537
 H         -46.746643     -126.995514      -42.226891
 H         -49.234875     -127.022804      -41.165852
 C         -46.238235     -126.257797      -41.683132
 C         -45.228081     -126.747620      -40.691525
 C         -46.754250     -124.882759      -41.641499
 C         -44.122154     -125.795952      -40.468758
 C         -45.639442     -123.866432      -41.431686
 C         -44.667755     -124.273399      -40.276962
 H         -44.778584     -127.788361      -40.923088
 H         -45.908489     -126.922035      -39.811817
 H         -47.239105     -124.630783      -42.631702
 H         -47.612843     -124.875229      -40.939903
 H         -43.515358     -125.734970      -41.377590
 H         -43.484127     -126.060402      -39.631248
 H         -46.065758     -122.823639      -41.337910
 H         -45.127876     -123.724579      -42.376545
 H         -43.834927     -123.532036      -40.111431
 H         -45.240757     -124.411736      -39.370445
