20
 generated by VMD
 C         -78.030724     -203.356262      -69.511543
 N         -78.709534     -204.301422      -69.294243
 H         -75.846817     -202.129761      -68.168266
 H         -77.409912     -202.590759      -69.964119
 C         -74.969635     -201.650864      -68.350899
 C         -74.853867     -200.239594      -68.592323
 C         -73.794945     -202.549866      -68.729683
 C         -74.828148     -200.018112      -70.082207
 C         -72.954391     -201.732437      -69.858063
 C         -73.861168     -200.989563      -70.773041
 H         -73.996399     -199.837433      -67.977997
 H         -75.795395     -199.806015      -68.249130
 H         -73.134003     -202.699371      -67.843567
 H         -74.192055     -203.513763      -69.078842
 H         -74.627014     -198.953873      -70.342285
 H         -75.848511     -200.148010      -70.463936
 H         -72.198326     -202.284393      -70.417389
 H         -72.314369     -200.958145      -69.341866
 H         -73.469582     -200.419830      -71.634117
 H         -74.612442     -201.691147      -71.259087
