20
 generated by VMD
 C          -2.547005       -8.697301       -0.425632
 N          -1.461100       -8.497761       -0.248906
 H          -3.142051       -9.713802        2.804078
 H          -1.936820      -10.681125        3.393019
 C          -2.987886      -10.714660        3.165957
 C          -3.257012      -11.661056        2.054435
 C          -3.754514      -10.945010        4.487939
 C          -3.299996      -13.103314        2.522615
 C          -3.693263      -12.417943        4.907560
 C          -4.218180      -13.291947        3.747141
 H          -2.550254      -11.557424        1.252710
 H          -4.223368      -11.494839        1.559520
 H          -3.437034      -10.283815        5.266749
 H          -4.758073      -10.763081        4.172214
 H          -2.333344      -13.510201        2.796600
 H          -3.711845      -13.762295        1.795110
 H          -4.415304      -12.559211        5.732338
 H          -2.661884      -12.777648        5.211578
 H          -4.231519      -14.369884        4.048801
 H          -5.269347      -12.984922        3.604169
