20
 generated by VMD
 C         -70.150009     -181.370346      -62.740318
 N         -71.087379     -180.839691      -63.200314
 H         -67.286499     -181.628632      -60.877895
 H         -69.235634     -181.910965      -62.441364
 C         -66.669540     -180.812653      -60.711430
 C         -65.266617     -181.088684      -60.523968
 C         -67.322067     -179.509338      -60.529556
 C         -64.324280     -179.913391      -60.644939
 C         -66.367821     -178.432251      -61.049644
 C         -65.101883     -178.653885      -60.254093
 H         -65.006332     -181.795639      -61.383430
 H         -65.018768     -181.532715      -59.444820
 H         -68.175140     -179.628693      -61.112518
 H         -67.646820     -179.438782      -59.492855
 H         -64.018929     -179.982742      -61.683796
 H         -63.410500     -179.947281      -60.134033
 H         -66.850815     -177.434036      -60.872673
 H         -66.089981     -178.600174      -62.119110
 H         -64.360825     -177.922958      -60.553204
 H         -65.145988     -178.654617      -59.123245
