20
 generated by VMD
 C         -53.315861     -147.524704      -45.555592
 N         -54.399574     -147.587280      -45.126614
 H         -54.322739     -147.736710      -48.232250
 H         -52.365868     -147.595657      -46.006096
 C         -54.390530     -146.714737      -48.672070
 C         -53.227524     -146.531158      -49.637966
 C         -55.092392     -145.517853      -48.027824
 C         -53.472897     -145.321121      -50.502686
 C         -55.111916     -144.381256      -49.014214
 C         -53.859535     -144.143326      -49.742271
 H         -53.081879     -147.526382      -50.239933
 H         -52.313572     -146.417572      -49.053963
 H         -56.146435     -145.826172      -47.911552
 H         -54.719620     -145.342575      -47.083378
 H         -54.214367     -145.615692      -51.227898
 H         -52.480587     -145.057724      -50.838036
 H         -55.473942     -143.361832      -48.536743
 H         -55.873909     -144.741959      -49.724216
 H         -53.663498     -143.280090      -50.407513
 H         -53.074287     -144.051270      -48.946281
