20
 generated by VMD
 C         -58.765175     -158.851181      -58.170757
 N         -58.661350     -159.837769      -57.469276
 H         -58.810291     -160.912140      -54.757084
 H         -58.888817     -157.952499      -58.783028
 C         -59.361340     -161.373596      -53.955719
 C         -58.731762     -161.756989      -52.663170
 C         -60.710979     -162.020081      -54.215893
 C         -59.753960     -161.598450      -51.417103
 C         -61.788750     -161.859039      -53.123341
 C         -61.072929     -162.313934      -51.792500
 H         -57.809311     -161.212051      -52.653812
 H         -58.461075     -162.812714      -52.632965
 H         -60.932751     -161.602890      -55.241810
 H         -60.608257     -163.049927      -54.384586
 H         -59.956177     -160.400513      -51.420536
 H         -59.266483     -162.004578      -50.556881
 H         -62.698627     -162.424850      -53.225330
 H         -62.148563     -160.839691      -53.018597
 H         -61.753365     -162.002563      -50.993969
 H         -60.924450     -163.348923      -51.914997
