20
 generated by VMD
 C         -29.686628      -87.957779      -25.393354
 N         -29.106974      -88.941139      -25.319508
 H         -31.346039      -89.993301      -27.597807
 H         -30.359652      -87.077065      -25.285648
 C         -32.425564      -89.798515      -27.483881
 C         -32.852718      -89.818573      -26.095804
 C         -33.400818      -89.379501      -28.558647
 C         -33.494064      -88.442299      -25.827482
 C         -34.205711      -88.207703      -28.316149
 C         -34.636143      -88.069160      -26.799397
 H         -31.902607      -89.861618      -25.576777
 H         -33.578568      -90.557404      -25.907259
 H         -32.813519      -89.256325      -29.436899
 H         -33.840504      -90.365166      -28.751621
 H         -32.737762      -87.626648      -25.933210
 H         -33.741543      -88.380798      -24.719954
 H         -34.956871      -88.116074      -29.114565
 H         -33.591389      -87.323776      -28.494493
 H         -35.058056      -87.058083      -26.577461
 H         -35.312050      -88.969086      -26.711937
