20
 generated by VMD
 C         -12.910421      -28.076893       -4.020278
 N         -13.880263      -27.603682       -4.342824
 H         -10.589446      -29.216070       -2.709791
 H         -10.401277      -27.771313       -3.647011
 C          -9.786199      -28.653828       -3.216627
 C          -9.350165      -29.522532       -4.393439
 C          -8.631259      -28.124744       -2.402586
 C          -8.277334      -28.871378       -5.200283
 C          -7.643246      -27.453739       -3.280046
 C          -7.132944      -28.433146       -4.308789
 H         -10.255791      -29.766594       -5.033884
 H          -9.006620      -30.405924       -3.958619
 H          -8.957037      -27.435169       -1.564935
 H          -8.158524      -28.977661       -1.818719
 H          -8.676319      -28.038639       -5.710146
 H          -7.833853      -29.604088       -5.859029
 H          -6.780481      -27.093203       -2.653609
 H          -8.067515      -26.597441       -3.770281
 H          -6.334812      -27.945396       -4.905108
 H          -6.749215      -29.381405       -3.836799
