20
 generated by VMD
 C         -32.546490      -93.109367      -25.584915
 N         -32.872871      -94.255669      -25.628029
 H         -33.435619      -94.345085      -28.440723
 H         -32.180176      -92.136620      -25.506914
 C         -34.228230      -93.994019      -29.116243
 C         -35.487663      -93.621391      -28.404835
 C         -33.790295      -93.265129      -30.292599
 C         -35.254330      -92.175545      -27.976898
 C         -33.475163      -91.868820      -29.966198
 C         -34.679272      -91.299843      -29.143044
 H         -35.754726      -94.189651      -27.487347
 H         -36.280018      -93.698120      -29.214151
 H         -33.043499      -93.911896      -30.801588
 H         -34.610867      -93.261139      -30.997644
 H         -34.756184      -91.998703      -27.011528
 H         -36.210617      -91.612083      -27.814232
 H         -33.211262      -91.458168      -30.913202
 H         -32.621357      -91.793488      -29.219584
 H         -34.458584      -90.239395      -28.937416
 H         -35.550293      -91.097488      -29.799587
