20
 generated by VMD
 C         -69.329430     -185.053940      -66.633125
 N         -69.254128     -185.070648      -67.781090
 H         -69.348969     -183.079620      -63.353619
 H         -69.529877     -185.045059      -65.532936
 C         -69.271835     -183.286636      -62.276939
 C         -69.717827     -184.430832      -61.454639
 C         -68.208771     -182.493683      -61.535278
 C         -68.582932     -185.367554      -60.984680
 C         -66.962128     -183.394379      -61.275017
 C         -67.357727     -184.685089      -60.499851
 H         -70.468880     -184.944229      -62.098061
 H         -70.159073     -184.054977      -60.523117
 H         -67.850380     -181.696487      -62.236477
 H         -68.538170     -182.015747      -60.547329
 H         -68.237000     -185.962784      -61.820259
 H         -69.051430     -185.996841      -60.245663
 H         -66.241783     -182.752472      -60.842430
 H         -66.586769     -183.890854      -62.174007
 H         -66.420776     -185.397308      -60.463570
 H         -67.446884     -184.311218      -59.519402
