20
 generated by VMD
 C         -16.255714      -47.649899       -7.119021
 N         -16.044718      -46.548267       -7.024166
 H         -16.840534      -48.132698      -10.217629
 H         -15.414997      -47.851128      -11.300504
 C         -16.445353      -47.496567      -11.047613
 C         -16.380161      -46.094589      -10.458582
 C         -17.380865      -47.712120      -12.247511
 C         -15.946516      -45.179585      -11.601774
 C         -16.967518      -46.815365      -13.419259
 C         -16.823624      -45.407684      -12.821166
 H         -15.722309      -46.050728       -9.589007
 H         -17.330841      -45.794037      -10.094695
 H         -17.482199      -48.745628      -12.546422
 H         -18.387430      -47.426365      -11.963132
 H         -14.903103      -45.320946      -11.883688
 H         -16.083687      -44.159233      -11.257286
 H         -17.883137      -46.855709      -14.009253
 H         -16.061726      -47.078476      -14.055077
 H         -16.451126      -44.731731      -13.646823
 H         -17.852859      -45.157036      -12.501799
