20
 generated by VMD
 C         -40.567993      -99.906235      -29.448309
 N         -40.004539     -100.186172      -28.458754
 H         -37.412292      -99.253075      -30.466005
 H         -41.096397      -99.848495      -30.466715
 C         -36.434109      -99.059647      -30.756922
 C         -35.850597      -99.230225      -32.153015
 C         -35.390820      -99.075699      -29.663872
 C         -34.745483      -98.277763      -32.557903
 C         -34.309349      -98.039047      -29.966053
 C         -33.753681      -98.095528      -31.419052
 H         -36.702633      -99.141975      -32.801048
 H         -35.407249     -100.266701      -32.290646
 H         -35.927536      -98.632210      -28.850126
 H         -35.208973     -100.138031      -29.433252
 H         -35.142490      -97.267395      -32.840397
 H         -34.053848      -98.608597      -33.315834
 H         -33.476128      -98.240074      -29.290915
 H         -34.486141      -97.004250      -29.526287
 H         -33.089802      -97.151367      -31.563126
 H         -33.057289      -98.894341      -31.437222
