20
 generated by VMD
 C         -38.137852     -107.958145      -36.945507
 N         -38.452408     -108.320747      -37.990425
 H         -41.307236     -108.802956      -35.723862
 H         -37.622711     -107.717194      -36.002106
 C         -41.160671     -109.506165      -34.799313
 C         -40.344288     -110.765121      -35.005047
 C         -42.418217     -109.787064      -33.960175
 C         -40.087708     -111.561996      -33.739285
 C         -42.204262     -110.657379      -32.750053
 C         -41.399014     -111.914749      -33.115391
 H         -39.396782     -110.373581      -35.373352
 H         -40.809566     -111.310997      -35.863640
 H         -42.940125     -108.824196      -33.642021
 H         -43.166088     -110.311424      -34.565739
 H         -39.438133     -111.005783      -33.133610
 H         -39.515694     -112.532608      -33.838257
 H         -43.231880     -110.954941      -32.364010
 H         -41.608223     -110.248283      -31.858765
 H         -41.274025     -112.473648      -32.121983
 H         -41.911728     -112.416061      -33.856243
