20
 generated by VMD
 C         -68.515800     -185.028076      -66.045570
 N         -69.535843     -185.577423      -66.065742
 H         -69.610535     -182.798630      -63.466270
 H         -67.531143     -184.548203      -65.965164
 C         -69.321571     -183.569717      -62.781467
 C         -70.079102     -184.851318      -62.668362
 C         -67.826225     -183.694153      -62.531994
 C         -69.211304     -185.972107      -62.003933
 C         -67.536972     -184.184891      -61.160732
 C         -68.388474     -185.431931      -60.775379
 H         -70.414566     -185.196350      -63.663166
 H         -70.903976     -184.601288      -62.008770
 H         -67.283623     -184.409882      -63.315365
 H         -67.448013     -182.644760      -62.589031
 H         -68.612442     -186.330185      -62.846046
 H         -69.652077     -186.911484      -61.736118
 H         -67.744377     -183.486389      -60.325245
 H         -66.414276     -184.185898      -61.133606
 H         -67.661919     -186.163483      -60.510212
 H         -69.046646     -185.414124      -59.818539
