20
 generated by VMD
 C         -61.052395     -156.244904      -54.875309
 N         -60.237236     -155.604767      -55.498497
 H         -59.632401     -156.577682      -52.118950
 H         -61.872028     -156.713501      -54.349712
 C         -58.650253     -156.626892      -51.685799
 C         -57.958042     -155.305542      -51.523483
 C         -57.892342     -157.894348      -52.048962
 C         -56.742790     -155.561874      -50.684532
 C         -56.591953     -158.068283      -51.112312
 C         -55.813885     -156.717972      -51.085884
 H         -58.583603     -154.485123      -51.008232
 H         -57.756477     -155.016159      -52.576130
 H         -58.499523     -158.717361      -51.866867
 H         -57.639515     -157.823151      -53.091522
 H         -57.002979     -155.918060      -49.615768
 H         -56.288380     -154.557144      -50.746803
 H         -55.979408     -158.828522      -51.672844
 H         -56.692509     -158.302780      -50.062962
 H         -54.950024     -156.723221      -50.308926
 H         -55.449642     -156.620285      -52.046017
