20
 generated by VMD
 C         -69.056038     -187.552170      -67.784828
 N         -67.925140     -187.403290      -67.660866
 H         -68.261307     -187.385696      -64.107201
 H         -70.125587     -187.742126      -68.050018
 C         -69.155121     -187.498734      -63.532162
 C         -69.084755     -187.953644      -62.081085
 C         -70.412781     -186.729889      -64.031174
 C         -70.299736     -188.956604      -61.882343
 C         -71.559830     -187.730057      -63.762726
 C         -71.581154     -188.298859      -62.314709
 H         -69.223457     -187.002884      -61.462074
 H         -68.160393     -188.525925      -61.759609
 H         -70.464462     -185.774323      -63.451252
 H         -70.354889     -186.622452      -65.072411
 H         -70.411949     -189.281403      -60.818737
 H         -69.986656     -189.838730      -62.452930
 H         -71.473152     -188.596573      -64.489006
 H         -72.572342     -187.245041      -63.770935
 H         -71.851364     -187.406586      -61.855328
 H         -72.376366     -189.085236      -62.308586
