20
 generated by VMD
 C         -44.700874     -122.422295      -36.057297
 N         -44.304787     -122.078758      -35.044640
 H         -45.248779     -122.861732      -39.568043
 H         -45.255840     -122.652191      -36.995499
 C         -44.945400     -121.786835      -39.489704
 C         -43.544117     -121.311348      -39.598099
 C         -46.063274     -120.737877      -39.464642
 C         -43.219673     -120.019066      -40.302166
 C         -45.731270     -119.517700      -40.281563
 C         -44.325794     -118.959419      -40.098442
 H         -42.968731     -122.049507      -40.116516
 H         -43.195908     -121.249931      -38.607422
 H         -47.024471     -121.221405      -39.871090
 H         -46.402828     -120.314003      -38.508595
 H         -42.970699     -120.346481      -41.409592
 H         -42.197475     -119.662048      -40.052139
 H         -46.362740     -118.657860      -39.985447
 H         -45.786110     -119.545532      -41.358189
 H         -44.122501     -118.024055      -40.630871
 H         -44.295490     -118.640793      -39.013313
