20
 generated by VMD
 C         -55.001186     -148.490540      -45.167587
 N         -54.550934     -148.731201      -44.151031
 H         -54.566475     -148.014114      -48.750999
 H         -55.475800     -148.393143      -46.131905
 C         -54.363857     -147.052917      -49.226254
 C         -53.212002     -146.915558      -50.134480
 C         -55.035641     -145.981979      -48.576469
 C         -53.276707     -145.681732      -51.010227
 C         -55.107971     -144.725784      -49.421139
 C         -53.844307     -144.379807      -50.106171
 H         -53.113052     -147.761124      -50.862766
 H         -52.367485     -146.971100      -49.486397
 H         -56.135334     -146.306076      -48.402363
 H         -54.615311     -145.749619      -47.580696
 H         -53.940681     -145.833450      -51.860649
 H         -52.201981     -145.422058      -51.332420
 H         -55.644939     -143.963394      -48.940731
 H         -55.811409     -145.094009      -50.315052
 H         -54.155296     -143.538132      -50.758488
 H         -53.006107     -144.259613      -49.398613
