20
 generated by VMD
 C         -22.741875      -52.341286      -11.901164
 N         -22.834299      -52.574474      -10.822219
 H         -20.105438      -52.599022      -14.149388
 H         -23.040918      -52.288273      -13.062017
 C         -18.989454      -52.643650      -13.925721
 C         -18.043364      -51.948166      -14.781454
 C         -18.346460      -53.457722      -12.826192
 C         -16.508396      -52.180450      -14.575152
 C         -17.047209      -52.947231      -12.175140
 C         -16.062798      -52.189579      -13.120895
 H         -18.215557      -50.827885      -14.635320
 H         -18.301155      -52.196960      -15.835525
 H         -19.064465      -53.470829      -12.000719
 H         -18.209620      -54.525833      -13.121858
 H         -15.884476      -51.459625      -15.102575
 H         -16.327168      -53.179432      -14.956349
 H         -16.580362      -53.934971      -11.736814
 H         -17.245764      -52.257549      -11.369305
 H         -16.100729      -51.114861      -12.843184
 H         -15.041561      -52.535774      -12.949278
