20
 generated by VMD
 C         -11.456956      -39.028862       -6.391709
 N         -11.763669      -38.843487       -7.459756
 H         -12.696508      -41.546349       -9.143138
 H         -13.560616      -40.234367       -8.440525
 C         -13.726840      -41.164524       -8.941659
 C         -14.501159      -42.101089       -8.033330
 C         -14.406779      -40.942940      -10.269268
 C         -15.954461      -41.694462       -7.900917
 C         -15.943271      -40.721992      -10.211364
 C         -16.648539      -41.645531       -9.234232
 H         -14.035003      -42.302067       -7.074288
 H         -14.424817      -43.104008       -8.484187
 H         -13.910016      -40.194485      -10.875492
 H         -14.260912      -41.830418      -10.917745
 H         -16.029270      -40.764801       -7.379289
 H         -16.535986      -42.370766       -7.245274
 H         -16.418608      -40.848377      -11.198302
 H         -16.009298      -39.654118       -9.829889
 H         -17.692364      -41.302170       -9.075067
 H         -16.674229      -42.703709       -9.606437
