20
 generated by VMD
 C         -13.001799      -28.703060       -5.861584
 N         -12.748452      -27.731230       -5.355049
 H         -11.511094      -31.065996       -3.404410
 H         -11.301958      -29.744766       -4.347073
 C         -10.698739      -30.489779       -3.817404
 C          -9.836396      -31.233339       -4.903670
 C          -9.961956      -29.792521       -2.698177
 C          -8.667305      -30.271593       -5.370621
 C          -8.722428      -29.027287       -3.093630
 C          -7.825948      -29.798496       -4.160317
 H         -10.440203      -31.594543       -5.750712
 H          -9.508142      -32.199310       -4.491477
 H         -10.713060      -29.158756       -2.215626
 H          -9.720794      -30.581688       -1.936339
 H          -9.019717      -29.388739       -5.905986
 H          -8.097870      -30.700457       -6.183674
 H          -8.135923      -28.751596       -2.221667
 H          -8.956365      -28.034864       -3.558996
 H          -7.093323      -29.054296       -4.526848
 H          -7.205338      -30.519688       -3.612403
