20
 generated by VMD
 C         -12.882610      -27.286156       -2.143482
 N         -11.818867      -27.445051       -1.839378
 H         -10.405375      -26.314713       -4.579515
 H          -8.966741      -26.026051       -5.508184
 C          -9.349987      -26.361202       -4.519968
 C          -9.058182      -27.835321       -4.390050
 C          -8.745923      -25.584532       -3.405725
 C          -7.571886      -28.138123       -4.255445
 C          -7.279432      -25.940519       -3.091337
 C          -6.849732      -27.344042       -3.195825
 H          -9.596074      -28.436131       -5.175103
 H          -9.572619      -28.237968       -3.509662
 H          -8.909805      -24.495375       -3.481359
 H          -9.323129      -25.819344       -2.491500
 H          -7.114917      -27.816212       -5.217206
 H          -7.318693      -29.237137       -4.181636
 H          -7.088400      -25.499012       -2.123840
 H          -6.749692      -25.288216       -3.819408
 H          -5.766104      -27.421831       -3.338824
 H          -7.131753      -27.852972       -2.298936
