20
 generated by VMD
 C         -19.865545      -51.410736      -10.280890
 N         -20.731937      -51.189381       -9.463598
 H         -17.423399      -48.819805      -10.119771
 H         -19.333214      -51.755890      -11.021242
 C         -17.191511      -48.970741      -11.130422
 C         -16.375021      -50.106518      -11.649236
 C         -17.364157      -47.800884      -12.125055
 C         -16.465929      -50.518898      -13.161237
 C         -17.521021      -48.350773      -13.572686
 C         -16.356449      -49.296116      -14.037786
 H         -16.618279      -50.991592      -11.106460
 H         -15.356129      -49.854610      -11.323234
 H         -18.346766      -47.411476      -11.855093
 H         -16.570417      -47.095623      -12.006782
 H         -17.437313      -51.000328      -13.282000
 H         -15.754337      -51.327812      -13.446153
 H         -17.552109      -47.497860      -14.220524
 H         -18.534727      -48.825409      -13.828561
 H         -16.530687      -49.591457      -15.075401
 H         -15.382108      -48.859104      -13.888704
