20
 generated by VMD
 C         -79.488777     -205.438980      -70.957626
 N         -80.579620     -205.677353      -71.135216
 H         -77.312599     -203.129227      -69.661591
 H         -78.471634     -205.274139      -70.551926
 C         -76.223885     -203.158737      -69.850479
 C         -75.348839     -201.996017      -70.224007
 C         -75.398346     -204.489670      -69.617836
 C         -73.784981     -202.067444      -70.503754
 C         -74.050919     -204.089905      -68.958527
 C         -73.201729     -203.493942      -70.060394
 H         -75.543625     -201.173187      -69.478874
 H         -75.646217     -201.560577      -71.159973
 H         -75.945381     -204.966049      -68.828255
 H         -75.133461     -205.037231      -70.539459
 H         -73.347298     -201.294907      -69.822937
 H         -73.522835     -201.785355      -71.510323
 H         -73.559509     -205.048386      -68.611031
 H         -74.124390     -203.401794      -68.115990
 H         -72.255707     -203.447739      -69.682350
 H         -73.219765     -204.156006      -70.909935
