20
 generated by VMD
 C         -44.706066     -122.316689      -35.920998
 N         -44.576263     -122.644478      -34.795086
 H         -45.282139     -122.880463      -39.605335
 H         -45.085976     -122.103104      -36.950310
 C         -44.945908     -121.828949      -39.714840
 C         -43.567822     -121.373642      -39.589046
 C         -46.018402     -120.711395      -39.558872
 C         -43.267544     -120.151901      -40.471111
 C         -45.753422     -119.572601      -40.447403
 C         -44.346550     -119.106476      -40.205547
 H         -42.800648     -122.180473      -39.834732
 H         -43.371323     -121.054207      -38.482735
 H         -46.958828     -121.205566      -39.543446
 H         -45.930450     -120.212585      -38.595413
 H         -43.207638     -120.525276      -41.436630
 H         -42.315933     -119.736534      -40.199043
 H         -46.455173     -118.685860      -40.379272
 H         -45.751602     -119.762909      -41.544353
 H         -44.130718     -118.249878      -40.873646
 H         -44.261009     -118.720055      -39.186359
