20
 generated by VMD
 C         -28.246031      -87.990326      -26.461464
 N         -28.303316      -86.889503      -26.071320
 H         -31.326891      -89.491035      -26.093386
 H         -28.025389      -88.993332      -26.768824
 C         -32.213066      -88.903786      -26.285236
 C         -33.133419      -88.738098      -25.078722
 C         -32.703571      -88.797691      -27.632570
 C         -34.329514      -87.897865      -25.398273
 C         -33.707005      -87.665840      -27.883858
 C         -34.914474      -87.833603      -26.848497
 H         -32.572811      -88.352570      -24.223206
 H         -33.417351      -89.711037      -24.967154
 H         -31.867662      -88.617065      -28.374474
 H         -33.158985      -89.805580      -27.784420
 H         -34.065952      -86.938484      -25.053288
 H         -35.083366      -88.197258      -24.665897
 H         -34.175137      -87.668129      -28.835705
 H         -33.175968      -86.692856      -27.770807
 H         -35.739120      -87.044548      -26.813557
 H         -35.431686      -88.854256      -27.028618
