20
 generated by VMD
 C         -78.747551     -208.268631      -76.816727
 N         -78.962494     -208.295868      -75.707535
 H         -79.003334     -209.736008      -73.489388
 H         -78.420074     -208.233704      -77.902870
 C         -78.599854     -210.051910      -72.520134
 C         -77.325615     -209.486450      -72.139923
 C         -79.067566     -211.312317      -71.940918
 C         -77.074631     -209.616135      -70.575279
 C         -78.995621     -211.110321      -70.358299
 C         -77.547379     -210.965897      -69.850616
 H         -77.281403     -208.396622      -72.396286
 H         -76.499420     -210.129456      -72.680954
 H         -80.145966     -211.592972      -72.203918
 H         -78.426697     -212.105515      -72.378883
 H         -77.496307     -208.745346      -70.035774
 H         -75.991165     -209.674057      -70.625351
 H         -79.604897     -212.054749      -70.033760
 H         -79.551216     -210.312454      -69.985252
 H         -77.488304     -210.976593      -68.714859
 H         -76.792366     -211.631332      -70.295677
