20
 generated by VMD
 C         -12.741330      -30.099407       -8.354847
 N         -13.703534      -30.652279       -8.262062
 H         -11.034184      -30.674702       -5.242548
 H         -10.758313      -31.185612       -3.711146
 C         -10.806744      -31.622252       -4.662075
 C          -9.445787      -32.235336       -4.936460
 C         -11.940007      -32.656162       -4.772330
 C          -9.189923      -33.596191       -4.312438
 C         -11.714592      -34.039024       -4.153244
 C         -10.329291      -34.611221       -4.581024
 H          -8.759757      -31.540934       -4.535418
 H          -9.317712      -32.345978       -6.049980
 H         -12.800816      -32.160366       -4.290530
 H         -12.206995      -32.758141       -5.839149
 H          -9.061581      -33.472301       -3.180377
 H          -8.222655      -33.974796       -4.740060
 H         -12.553320      -34.700909       -4.496328
 H         -11.690338      -33.958561       -3.051841
 H         -10.012347      -35.558189       -4.082398
 H         -10.339752      -34.855824       -5.659589
