20
 generated by VMD
 C         -38.678997     -111.372475      -36.468079
 N         -38.359135     -110.276672      -36.495472
 H         -40.176003     -113.916565      -35.083622
 H         -39.113277     -112.300667      -36.265430
 C         -41.127472     -113.536270      -35.370224
 C         -41.721615     -113.808052      -36.750839
 C         -41.781361     -112.487999      -34.445957
 C         -43.220238     -114.143982      -36.495674
 C         -43.242496     -112.910553      -34.321583
 C         -43.866291     -112.947235      -35.688259
 H         -41.149281     -114.619461      -37.199177
 H         -41.690529     -112.973610      -37.427536
 H         -41.400043     -112.620453      -33.398098
 H         -41.571953     -111.479668      -34.964787
 H         -43.146736     -114.918427      -35.771183
 H         -43.868614     -114.550186      -37.370243
 H         -43.668533     -112.132759      -33.679295
 H         -43.239555     -113.950958      -33.970795
 H         -44.979538     -113.145180      -35.697491
 H         -43.662437     -112.132256      -36.380569
