20
 generated by VMD
 C         -61.071621     -154.975113      -53.445816
 N         -61.309879     -154.579010      -52.360176
 H         -58.006001     -154.479935      -52.490898
 H         -60.985241     -155.366623      -54.474564
 C         -57.116749     -154.408981      -51.871731
 C         -57.400467     -154.185745      -50.438721
 C         -55.860489     -153.891754      -52.527325
 C         -56.194866     -154.560272      -49.602234
 C         -54.615353     -154.384079      -51.633553
 C         -54.922535     -153.938095      -50.104126
 H         -58.333317     -154.694138      -50.080708
 H         -57.781395     -153.168655      -50.310524
 H         -55.670338     -154.464783      -53.427467
 H         -55.844757     -152.817474      -52.728130
 H         -56.051067     -155.570557      -49.723980
 H         -56.569847     -154.356125      -48.617004
 H         -53.684437     -153.991425      -52.108891
 H         -54.598297     -155.442673      -51.597778
 H         -53.956814     -154.289719      -49.497646
 H         -54.890049     -152.886612      -49.852524
