20
 generated by VMD
 C         -54.828106     -148.406769      -45.177612
 N         -54.520542     -148.603165      -44.106113
 H         -54.721924     -148.110458      -48.895760
 H         -55.262386     -148.177139      -46.152546
 C         -54.435001     -147.112015      -49.318836
 C         -53.212814     -146.806442      -50.076988
 C         -54.999935     -146.008636      -48.557529
 C         -53.309475     -145.581604      -50.828533
 C         -55.112270     -144.659439      -49.445759
 C         -53.839115     -144.345428      -50.137108
 H         -52.966389     -147.566422      -50.854355
 H         -52.351795     -146.955307      -49.411934
 H         -55.951313     -146.225372      -48.060711
 H         -54.271702     -145.789734      -47.783550
 H         -53.988575     -145.714859      -51.698277
 H         -52.356335     -145.236450      -51.200783
 H         -55.310047     -143.841614      -48.713295
 H         -55.902039     -144.744019      -50.182472
 H         -54.033802     -143.532959      -50.772850
 H         -53.083790     -144.229858      -49.405518
