20
 generated by VMD
 C         -79.710083     -205.536026      -72.334625
 N         -80.101242     -206.631317      -72.382843
 H         -77.610779     -204.655624      -71.042099
 H         -79.251152     -204.515717      -72.524475
 C         -76.632385     -205.100204      -71.133514
 C         -75.509720     -204.183456      -71.345551
 C         -76.326027     -206.414261      -70.572906
 C         -74.585106     -204.021103      -70.066238
 C         -75.630142     -206.238617      -69.236679
 C         -74.394669     -205.315491      -69.238182
 H         -75.996201     -203.180771      -71.549561
 H         -74.905937     -204.460648      -72.239120
 H         -77.284538     -206.955353      -70.512863
 H         -75.824745     -206.867310      -71.399574
 H         -75.089989     -203.381348      -69.304916
 H         -73.644936     -203.452667      -70.247292
 H         -75.391342     -207.211899      -68.860512
 H         -76.317078     -205.664276      -68.528465
 H         -74.111824     -204.939133      -68.268372
 H         -73.593254     -205.976898      -69.587715
