20
 generated by VMD
 C         -49.647003     -133.133545      -46.765450
 N         -48.630554     -132.692688      -47.281925
 H         -47.976536     -134.668701      -43.977737
 H         -50.509834     -133.380173      -46.119434
 C         -49.048409     -134.791855      -43.866222
 C         -49.486961     -136.143021      -44.297939
 C         -50.073109     -133.953140      -43.325871
 C         -50.114006     -136.930313      -43.047604
 C         -50.775940     -134.656082      -42.064281
 C         -51.218880     -136.079071      -42.413696
 H         -48.526043     -136.743515      -44.506767
 H         -50.116905     -136.176407      -45.158031
 H         -49.701309     -132.884247      -43.005806
 H         -50.872616     -133.771225      -44.096901
 H         -49.273361     -137.159256      -42.373913
 H         -50.541504     -137.822189      -43.513416
 H         -51.596313     -134.023071      -41.870144
 H         -50.122314     -134.740295      -41.222332
 H         -51.648811     -136.739380      -41.508823
 H         -52.120911     -136.205032      -42.999386
