20
 generated by VMD
 C         -57.291023     -164.074661      -56.690594
 N         -57.276768     -163.014221      -57.248241
 H         -60.102264     -165.586426      -54.770767
 H         -57.474041     -165.017151      -56.178020
 C         -60.893265     -164.891739      -54.625946
 C         -61.726902     -165.355591      -53.478664
 C         -61.385746     -164.337265      -55.932610
 C         -63.079224     -164.686996      -53.493729
 C         -62.818539     -163.848618      -55.836220
 C         -63.741035     -164.691238      -54.890247
 H         -61.278229     -165.215042      -52.498138
 H         -61.734409     -166.486771      -53.483521
 H         -60.833752     -163.580826      -56.512676
 H         -61.411770     -165.160568      -56.574459
 H         -62.989109     -163.656372      -53.142597
 H         -63.644001     -165.300354      -52.762608
 H         -63.160454     -163.546982      -56.839008
 H         -62.679317     -162.829010      -55.485283
 H         -64.738258     -164.108597      -54.871754
 H         -63.865276     -165.702316      -55.431179
