20
 generated by VMD
 C         -60.363819     -169.689865      -55.283287
 N         -59.406635     -168.956482      -55.245178
 H         -63.180931     -170.547531      -56.611847
 H         -61.174915     -170.425964      -55.391716
 C         -63.381512     -169.578552      -56.935257
 C         -62.682823     -169.042313      -58.204803
 C         -63.754833     -168.561539      -55.866032
 C         -63.259022     -167.714340      -58.701218
 C         -64.293373     -167.307602      -56.420528
 C         -63.496895     -166.706192      -57.612972
 H         -62.656300     -169.864639      -59.076801
 H         -61.710739     -168.773636      -58.151882
 H         -64.501900     -169.162048      -55.157513
 H         -62.765747     -168.450592      -55.243271
 H         -64.223495     -167.941116      -59.138885
 H         -62.516808     -167.282364      -59.449032
 H         -64.290665     -166.456970      -55.692402
 H         -65.462021     -167.369965      -56.797234
 H         -64.150223     -165.904358      -58.061405
 H         -62.527847     -166.307877      -57.272381
