20
 generated by VMD
 C         -69.028450     -181.140488      -61.246571
 N         -69.914360     -180.589905      -60.770596
 H         -67.089127     -178.518173      -59.464989
 H         -68.143089     -181.504395      -61.665756
 C         -66.296463     -177.977570      -59.848930
 C         -65.757462     -178.235626      -61.157822
 C         -65.420494     -177.513168      -58.839870
 C         -65.029503     -177.052917      -61.715759
 C         -64.796402     -176.158966      -59.335060
 C         -64.071999     -176.404648      -60.741364
 H         -66.598755     -178.509171      -61.778664
 H         -65.116402     -179.098053      -61.104290
 H         -65.993828     -177.321289      -57.853199
 H         -64.627144     -178.278687      -58.655544
 H         -65.931808     -176.226837      -61.833927
 H         -64.693970     -177.274384      -62.768925
 H         -64.133461     -175.871384      -58.507938
 H         -65.498070     -175.307327      -59.443405
 H         -63.939411     -175.305023      -61.035141
 H         -63.059898     -176.915604      -60.551136
