20
 generated by VMD
 C         -40.471390     -117.005241      -34.450142
 N         -39.471371     -116.463745      -34.645832
 H         -41.410393     -115.843651      -37.850628
 H         -41.386524     -117.569695      -34.280930
 C         -42.477047     -116.223564      -37.929756
 C         -43.142960     -116.042236      -39.321285
 C         -43.358616     -116.133064      -36.701878
 C         -44.485748     -116.846519      -39.372562
 C         -44.692757     -116.807327      -36.811081
 C         -45.400620     -116.654091      -38.168449
 H         -42.339218     -116.238182      -40.066853
 H         -43.403694     -114.956383      -39.537613
 H         -42.781433     -116.569008      -35.871143
 H         -43.495380     -115.080055      -36.523769
 H         -44.319126     -117.929939      -39.389519
 H         -44.940601     -116.649849      -40.331963
 H         -45.389336     -116.285545      -36.027325
 H         -44.471294     -117.967659      -36.519554
 H         -46.292114     -117.279282      -38.363609
 H         -45.861156     -115.538841      -38.236317
