20
 generated by VMD
 C         -12.877776      -27.223099       -2.232384
 N         -11.886858      -27.510193       -1.823113
 H         -10.404367      -26.123158       -4.515105
 H          -8.944947      -25.974979       -5.472371
 C          -9.367986      -26.386488       -4.544781
 C          -9.068906      -27.916641       -4.357181
 C          -8.778962      -25.619631       -3.323400
 C          -7.526010      -28.167618       -4.354210
 C          -7.322439      -25.907173       -3.130284
 C          -6.851711      -27.412439       -3.173668
 H          -9.463392      -28.418224       -5.312506
 H          -9.474784      -28.268841       -3.421204
 H          -8.820620      -24.544868       -3.588050
 H          -9.361316      -25.818350       -2.422044
 H          -7.043699      -27.937571       -5.349968
 H          -7.440060      -29.278610       -4.103742
 H          -7.064552      -25.646624       -2.113928
 H          -6.628071      -25.354586       -3.799465
 H          -5.756599      -27.396667       -3.332330
 H          -6.974478      -27.838404       -2.206371
