20
 generated by VMD
 C         -59.927788     -153.136414      -51.271809
 N         -60.494232     -152.174606      -51.630619
 H         -57.077526     -153.345428      -49.299595
 H         -59.336048     -154.032089      -51.089138
 C         -56.367428     -152.830597      -49.951286
 C         -54.925465     -153.157776      -49.597336
 C         -56.662315     -151.492569      -50.366528
 C         -53.764980     -152.522980      -50.417610
 C         -55.663475     -151.152023      -51.392567
 C         -54.182308     -151.138153      -50.776123
 H         -54.918545     -154.296844      -49.599873
 H         -54.668854     -152.744980      -48.607338
 H         -57.720116     -151.490158      -50.706577
 H         -56.707443     -150.824936      -49.478046
 H         -53.542507     -153.091248      -51.352322
 H         -52.921764     -152.534103      -49.751926
 H         -55.905773     -150.244827      -51.808857
 H         -55.587105     -151.898148      -52.298290
 H         -53.487789     -150.864532      -51.444199
 H         -54.091927     -150.468536      -49.881626
