20
 generated by VMD
 C         -10.518681      -37.599964       -7.991801
 N         -10.951395      -36.722099       -7.432003
 H         -12.697018      -39.507584       -8.240727
 H         -13.944830      -39.290577       -7.010155
 C         -13.693352      -39.752937       -7.920367
 C         -13.791331      -41.270763       -7.767857
 C         -14.625235      -39.243431       -9.015778
 C         -15.260288      -41.861725       -7.677021
 C         -16.110001      -39.734951       -8.846169
 C         -16.113598      -41.283875       -8.818351
 H         -13.161441      -41.628937       -6.965531
 H         -13.413442      -41.772068       -8.657381
 H         -14.589751      -38.162762       -9.105942
 H         -14.221933      -39.628330      -10.007545
 H         -15.614001      -41.604866       -6.698239
 H         -15.308860      -42.978367       -7.733186
 H         -16.714758      -39.345581       -9.608786
 H         -16.477093      -39.241856       -7.879690
 H         -17.120090      -41.613548       -8.597404
 H         -15.832801      -41.826908       -9.751789
