20
 generated by VMD
 C         -79.735725     -207.035339      -73.567772
 N         -80.065254     -205.992920      -73.979912
 H         -78.185875     -205.192673      -70.587372
 H         -79.757851     -208.052155      -73.230263
 C         -77.203415     -205.324631      -70.153915
 C         -76.100960     -204.568665      -70.926544
 C         -76.861305     -206.721298      -69.611809
 C         -74.750427     -204.794861      -70.276207
 C         -75.386559     -206.856171      -69.228149
 C         -74.409317     -206.246628      -70.149307
 H         -76.194817     -203.417068      -71.022156
 H         -76.110352     -204.938019      -71.973907
 H         -77.417114     -207.047745      -68.695442
 H         -77.083328     -207.560654      -70.344864
 H         -74.777657     -204.280975      -69.319618
 H         -74.071320     -204.235733      -70.890297
 H         -75.293343     -207.929489      -68.982178
 H         -75.190170     -206.441681      -68.225922
 H         -73.341125     -206.392807      -69.833191
 H         -74.489388     -206.816864      -71.079765
