20
 generated by VMD
 C         -31.747452      -75.848869      -23.985106
 N         -31.093790      -76.277740      -24.879742
 H         -29.667612      -78.404182      -22.371513
 H         -32.234188      -75.437439      -23.197680
 C         -28.652035      -78.121269      -22.111614
 C         -27.590858      -78.293350      -23.242533
 C         -28.210051      -78.173477      -20.616070
 C         -26.239216      -77.611038      -22.943327
 C         -26.775106      -77.613968      -20.472614
 C         -25.734240      -77.950890      -21.530821
 H         -27.976053      -77.727013      -24.227274
 H         -27.415716      -79.417755      -23.339365
 H         -28.855980      -77.518456      -20.081940
 H         -28.300610      -79.208824      -20.345198
 H         -26.447828      -76.541527      -22.836103
 H         -25.495348      -77.772240      -23.725142
 H         -26.398115      -77.866478      -19.485081
 H         -26.814054      -76.570961      -20.457222
 H         -24.686157      -77.570915      -21.263388
 H         -25.501350      -79.043213      -21.495527
