20
 generated by VMD
 C         -70.470108     -181.219711      -63.913200
 N         -70.817245     -182.189270      -63.358536
 H         -68.201195     -181.230713      -61.018356
 H         -70.119041     -180.330368      -64.488144
 C         -67.189659     -180.803772      -60.810066
 C         -65.956261     -181.669922      -60.456039
 C         -67.409134     -179.329529      -60.503605
 C         -64.761635     -180.895264      -60.742313
 C         -66.097717     -178.582687      -60.862259
 C         -64.814552     -179.352051      -60.322247
 H         -65.887794     -182.608002      -61.069744
 H         -66.062485     -181.758682      -59.345753
 H         -68.160118     -178.776474      -61.081913
 H         -67.654915     -179.149567      -59.367748
 H         -64.283005     -181.057709      -61.822891
 H         -63.912113     -181.382355      -60.106724
 H         -66.066238     -177.592133      -60.386848
 H         -66.075554     -178.442169      -61.938644
 H         -63.911678     -178.879425      -60.515682
 H         -64.986359     -179.207214      -59.267265
