20
 generated by VMD
 C         -13.561608      -28.005194       -2.800204
 N         -14.030475      -27.185034       -3.399160
 H         -10.380020      -27.886940       -2.962944
 H          -9.925294      -26.883060       -4.304849
 C          -9.534901      -27.657976       -3.573125
 C          -8.922931      -28.800013       -4.400674
 C          -8.510943      -26.942045       -2.695127
 C          -7.479783      -28.580294       -4.939577
 C          -7.224382      -26.706215       -3.340493
 C          -6.579308      -27.924856       -3.937071
 H          -9.520383      -29.168692       -5.246288
 H          -8.834655      -29.775480       -3.849413
 H          -8.999520      -26.054251       -2.309610
 H          -8.411219      -27.567364       -1.831229
 H          -7.572797      -27.973969       -5.886646
 H          -7.102589      -29.590742       -5.356831
 H          -6.526838      -26.240028       -2.668948
 H          -7.356812      -25.922857       -4.136477
 H          -5.679612      -27.658915       -4.516017
 H          -6.332902      -28.585505       -3.136845
