20
 generated by VMD
 C         -40.310371     -118.321899      -34.833920
 N         -39.446865     -117.597588      -35.051647
 H         -42.615608     -116.249496      -36.590576
 H         -41.226997     -118.763794      -34.713367
 C         -43.370678     -116.722527      -37.259743
 C         -42.858715     -117.029297      -38.657425
 C         -44.769707     -116.293907      -36.997128
 C         -43.918182     -117.791290      -39.410004
 C         -45.766083     -116.945221      -37.866230
 C         -45.210651     -117.077599      -39.308159
 H         -41.870548     -117.579742      -38.613945
 H         -42.591633     -116.064796      -39.201012
 H         -44.841537     -116.320602      -35.839668
 H         -44.826084     -115.241455      -37.286064
 H         -43.945606     -118.845299      -39.158646
 H         -43.490669     -117.781654      -40.420128
 H         -46.674683     -116.194809      -37.826851
 H         -46.076500     -117.973434      -37.703087
 H         -46.010559     -117.626015      -39.963509
 H         -45.004894     -116.077499      -39.885307
