20
 generated by VMD
 C         -76.867546     -203.350723      -66.751259
 N         -77.601746     -203.937561      -66.072922
 H         -75.336029     -200.699585      -68.184906
 H         -76.018028     -202.751862      -67.146294
 C         -74.714821     -200.046646      -68.826317
 C         -74.803886     -198.586197      -68.767197
 C         -73.786270     -200.577347      -69.841522
 C         -73.492920     -197.727539      -68.904221
 C         -73.042725     -199.598694      -70.704651
 C         -72.845726     -198.173737      -70.360428
 H         -75.179794     -198.329742      -67.644653
 H         -75.592651     -198.215256      -69.439445
 H         -73.005547     -201.317734      -69.594292
 H         -74.403427     -201.195328      -70.494629
 H         -72.886902     -198.035141      -68.059258
 H         -73.649376     -196.607788      -68.960487
 H         -73.480492     -199.617142      -71.757614
 H         -72.048317     -200.133560      -71.007072
 H         -71.790932     -197.806244      -70.262466
 H         -73.289017     -197.567825      -71.061020
