20
 generated by VMD
 C         -30.326654      -92.798630      -25.848799
 N         -29.691439      -92.435188      -24.921753
 H         -32.482632      -89.736839      -26.483063
 H         -30.990969      -93.063080      -26.673510
 C         -33.316212      -89.966934      -27.213242
 C         -34.066853      -91.281227      -27.095486
 C         -33.369404      -89.276352      -28.596615
 C         -35.413025      -91.402939      -27.854111
 C         -34.797081      -89.430084      -29.196440
 C         -35.186287      -90.937531      -29.293941
 H         -34.109394      -91.475021      -26.040888
 H         -33.262733      -91.891998      -27.324076
 H         -33.253117      -88.231972      -28.568796
 H         -32.697647      -89.629471      -29.303284
 H         -36.200733      -90.821548      -27.392511
 H         -35.715008      -92.495125      -27.815523
 H         -34.814980      -89.061928      -30.251141
 H         -35.620213      -88.858337      -28.777361
 H         -36.224140      -91.066322      -29.647741
 H         -34.578880      -91.607452      -29.982590
