20
 generated by VMD
 C         -61.049576     -172.265320      -55.174744
 N         -60.242027     -173.062332      -54.994476
 H         -62.341419     -170.740097      -57.424263
 H         -61.714554     -171.460281      -55.473988
 C         -63.016766     -169.915634      -57.352592
 C         -62.628185     -168.426285      -57.511669
 C         -64.559288     -170.159119      -57.351021
 C         -63.353775     -167.815384      -58.814697
 C         -65.186485     -169.477020      -58.586678
 C         -64.872803     -168.054291      -58.742592
 H         -61.504498     -168.392395      -57.589523
 H         -62.949970     -167.906219      -56.580273
 H         -64.865013     -171.251678      -57.327763
 H         -64.977974     -169.694717      -56.427624
 H         -62.940502     -168.333771      -59.708572
 H         -63.097462     -166.720428      -58.870399
 H         -66.254036     -169.536774      -58.577499
 H         -64.739769     -169.966812      -59.404480
 H         -65.190376     -167.657608      -59.735477
 H         -65.451988     -167.385086      -58.016163
