20
 generated by VMD
 C         -28.991524      -73.833305      -19.495741
 N         -29.968357      -74.487968      -19.486002
 H         -25.626331      -73.311813      -18.884327
 H         -27.988865      -73.405785      -19.256540
 C         -25.636732      -73.185318      -19.936783
 C         -25.312275      -74.391960      -20.721685
 C         -25.764114      -71.738060      -20.372156
 C         -25.813854      -74.278709      -22.173389
 C         -26.257427      -71.674149      -21.922237
 C         -25.547535      -72.864304      -22.702026
 H         -25.775946      -75.357414      -20.262047
 H         -24.156540      -74.482666      -20.733629
 H         -26.463545      -71.221054      -19.628244
 H         -24.834225      -71.211098      -20.462044
 H         -26.904762      -74.377792      -22.186785
 H         -25.330782      -74.974709      -22.854635
 H         -26.120810      -70.712708      -22.331697
 H         -27.256569      -71.793907      -21.872910
 H         -25.658289      -72.880188      -23.849316
 H         -24.457737      -72.664902      -22.524069
