20
 generated by VMD
 C         -22.011486      -55.343575      -17.548965
 N         -21.523945      -55.781487      -18.454908
 H         -21.344259      -56.719376      -13.945160
 H         -22.177429      -55.003139      -16.482216
 C         -21.105190      -57.772198      -14.150827
 C         -21.241205      -58.794395      -12.911486
 C         -20.828791      -58.281548      -15.483139
 C         -20.917814      -60.199131      -13.285470
 C         -20.261604      -59.652206      -15.595940
 C         -19.815336      -60.116344      -14.281851
 H         -22.228603      -58.697372      -12.505815
 H         -20.612026      -58.513470      -12.099233
 H         -21.821516      -58.278179      -16.086679
 H         -20.112566      -57.606453      -15.984521
 H         -21.821581      -60.817871      -13.562845
 H         -20.467590      -60.726685      -12.410297
 H         -19.508854      -59.647511      -16.405344
 H         -21.049509      -60.261063      -16.044313
 H         -19.370663      -61.090416      -14.458861
 H         -19.035158      -59.492268      -13.889285
