20
 generated by VMD
 C         -70.348160     -196.691269      -65.250076
 N         -69.595680     -197.324890      -65.882217
 H         -74.148529     -195.874329      -65.173325
 H         -70.875687     -195.923599      -64.677574
 C         -73.793503     -195.430389      -66.100723
 C         -73.138046     -194.081985      -66.076180
 C         -74.296593     -195.942932      -67.467613
 C         -72.452583     -193.942612      -67.368408
 C         -74.578827     -194.737625      -68.411461
 C         -73.392441     -193.648483      -68.552505
 H         -72.403069     -194.211700      -65.353882
 H         -73.886871     -193.215698      -65.962715
 H         -73.481209     -196.560806      -67.933815
 H         -75.223305     -196.544418      -67.350563
 H         -71.961143     -194.864410      -67.611435
 H         -71.718079     -193.170166      -67.315437
 H         -75.577972     -194.279922      -68.165970
 H         -74.719528     -195.097763      -69.417046
 H         -72.904060     -193.864563      -69.617233
 H         -73.844917     -192.660507      -68.559921
