20
 generated by VMD
 C         -40.740849     -102.566513      -34.985615
 N         -41.523041     -102.355484      -35.801739
 H         -39.877655     -105.069183      -32.725910
 H         -40.080635     -102.813889      -34.107994
 C         -38.843304     -104.843422      -32.226665
 C         -37.699917     -103.995003      -32.853306
 C         -38.564079     -106.028717      -31.223345
 C         -36.445152     -103.860596      -31.983496
 C         -37.246372     -105.696922      -30.459795
 C         -36.152721     -105.230042      -31.376579
 H         -38.093819     -103.024139      -33.076645
 H         -37.602367     -104.453598      -33.822021
 H         -39.321331     -106.220940      -30.468924
 H         -38.551975     -106.912750      -31.995939
 H         -36.483532     -102.928284      -31.354006
 H         -35.582741     -103.628304      -32.676407
 H         -36.868778     -106.663101      -29.921421
 H         -37.510025     -104.947510      -29.639769
 H         -35.133854     -105.237747      -30.858076
 H         -36.134953     -105.923882      -32.177174
