20
 generated by VMD
 C         -12.971170      -28.701778       -5.879441
 N         -12.770160      -27.738449       -5.361623
 H         -11.364650      -31.248585       -3.471326
 H         -11.233349      -29.660419       -4.417204
 C         -10.727715      -30.498301       -3.900573
 C          -9.844588      -31.220823       -4.869359
 C          -9.958838      -29.868332       -2.702665
 C          -8.669547      -30.314375       -5.356410
 C          -8.741955      -29.046963       -3.155101
 C          -7.851080      -29.789833       -4.122880
 H         -10.545549      -31.448872       -5.724358
 H          -9.327080      -32.058098       -4.486599
 H         -10.587719      -29.123755       -2.197854
 H          -9.672041      -30.639751       -1.901581
 H          -9.152554      -29.472612       -5.835623
 H          -7.995584      -30.907625       -5.985523
 H          -8.166997      -28.835836       -2.236230
 H          -9.152919      -28.126280       -3.582991
 H          -7.043825      -29.219040       -4.487754
 H          -7.397166      -30.685896       -3.607474
