20
 generated by VMD
 C         -49.920197     -127.523514      -39.296085
 N         -49.093418     -126.736839      -39.265987
 H         -46.870544     -126.469307      -41.551117
 H         -50.569664     -128.389481      -39.416603
 C         -46.212193     -125.597649      -41.251957
 C         -45.144573     -126.121910      -40.412441
 C         -46.642475     -124.247955      -41.147549
 C         -43.901108     -125.275902      -40.683208
 C         -45.422230     -123.298737      -41.418282
 C         -44.227325     -123.743065      -40.575848
 H         -44.971722     -127.138580      -40.691257
 H         -45.373650     -126.046967      -39.397072
 H         -47.573215     -124.238617      -41.874577
 H         -47.029877     -123.975655      -40.162468
 H         -43.532856     -125.499756      -41.659519
 H         -43.202152     -125.606697      -39.960384
 H         -45.697422     -122.156052      -41.219700
 H         -45.152164     -123.362930      -42.574345
 H         -43.365238     -123.221298      -41.057323
 H         -44.327999     -123.475594      -39.505268
