20
 generated by VMD
 C         -78.818642     -207.909607      -76.549217
 N         -78.532394     -207.869827      -75.454231
 H         -79.395340     -210.132874      -73.322037
 H         -78.945038     -207.820267      -77.671829
 C         -78.787209     -210.160263      -72.373291
 C         -77.503296     -209.488708      -72.404083
 C         -79.045586     -211.390686      -71.563271
 C         -77.108109     -209.132736      -70.891487
 C         -78.608093     -210.995605      -70.090454
 C         -77.173775     -210.253799      -69.858986
 H         -77.499947     -208.572830      -73.047043
 H         -76.766563     -210.246201      -72.743736
 H         -80.090240     -211.583374      -71.750168
 H         -78.447983     -212.268494      -71.926010
 H         -77.847404     -208.357559      -70.677849
 H         -76.085175     -208.762604      -70.824356
 H         -78.596954     -211.942612      -69.460968
 H         -79.465111     -210.440109      -69.734749
 H         -76.937485     -209.931976      -68.813293
 H         -76.527428     -211.141388      -70.104500
