20
 generated by VMD
 C         -67.625137     -189.681519      -66.875496
 N         -66.801994     -189.055176      -67.427132
 H         -68.917107     -189.160431      -64.106949
 H         -68.280251     -190.281799      -66.321335
 C         -69.982315     -188.965057      -63.915230
 C         -70.764252     -190.200089      -63.932484
 C         -70.422585     -187.770020      -63.214233
 C         -72.301956     -189.849335      -64.098366
 C         -71.789215     -187.439728      -63.716846
 C         -72.870682     -188.581238      -63.354652
 H         -70.699776     -190.645096      -62.988064
 H         -70.418549     -190.748184      -64.807693
 H         -70.361343     -187.796448      -62.157780
 H         -69.687843     -186.883911      -63.359116
 H         -72.859093     -190.760376      -63.760323
 H         -72.461723     -189.693253      -65.159027
 H         -71.815216     -187.252029      -64.798492
 H         -72.221176     -186.468552      -63.374130
 H         -72.690895     -188.871445      -62.372360
 H         -73.874290     -188.238373      -63.602180
