20
 generated by VMD
 C         -40.931801     -100.911392      -32.857735
 N         -41.863338     -101.351501      -32.290131
 H         -38.480103     -102.966270      -32.463882
 H         -40.335472     -100.355942      -33.516068
 C         -37.542488     -102.773277      -31.922884
 C         -36.256496     -102.670158      -32.890827
 C         -37.259449     -102.973701      -30.475426
 C         -35.167633     -101.801468      -32.397453
 C         -36.306236     -101.800339      -30.115572
 C         -34.926895     -101.912537      -30.799147
 H         -36.495014     -102.342796      -33.890881
 H         -35.896908     -103.703865      -32.997959
 H         -38.316010     -102.879410      -29.981121
 H         -36.906288     -103.993973      -30.317312
 H         -35.342941     -100.761467      -32.504738
 H         -34.305054     -101.953957      -32.923565
 H         -36.115131     -101.628922      -29.109119
 H         -36.799011     -100.848640      -30.492132
 H         -34.292477     -101.105614      -30.493389
 H         -34.424168     -102.873276      -30.700548
