20
 generated by VMD
 C         -66.685394     -189.664520      -66.710739
 N         -66.492607     -189.132309      -67.718605
 H         -69.395294     -190.001724      -64.315926
 H         -66.965599     -190.308365      -65.867737
 C         -70.391754     -189.611252      -64.299751
 C         -71.561501     -190.528595      -63.974510
 C         -70.435417     -188.145462      -63.680931
 C         -72.869751     -189.838181      -64.009193
 C         -71.818794     -187.628662      -63.640320
 C         -72.836784     -188.604721      -63.174194
 H         -71.416817     -190.908722      -62.926125
 H         -71.671860     -191.494598      -64.594154
 H         -70.004158     -188.217529      -62.619888
 H         -69.845482     -187.433685      -64.385628
 H         -73.744972     -190.507507      -63.727783
 H         -73.109169     -189.588516      -65.018951
 H         -72.254425     -187.438889      -64.564323
 H         -71.783539     -186.724564      -63.017937
 H         -72.787697     -188.767792      -62.110611
 H         -73.928696     -188.191940      -63.414089
