20
 generated by VMD
 C         -15.114463      -45.953323       -7.036709
 N         -14.648682      -46.832863       -6.562369
 H         -15.465994      -44.213161       -9.138979
 H         -14.525311      -44.635677      -10.678104
 C         -15.547261      -44.562885      -10.174148
 C         -16.431700      -43.510796      -10.964390
 C         -16.157028      -45.939964      -10.229285
 C         -16.704060      -43.823513      -12.418819
 C         -16.306568      -46.252277      -11.772891
 C         -17.201921      -45.237854      -12.566153
 H         -15.971248      -42.534008      -10.847662
 H         -17.402649      -43.582329      -10.422826
 H         -15.519010      -46.642212       -9.716866
 H         -17.184711      -45.982880       -9.867474
 H         -15.773876      -43.739017      -12.985248
 H         -17.438843      -43.074268      -12.766250
 H         -16.801037      -47.179615      -11.891542
 H         -15.307049      -46.322231      -12.331548
 H         -17.319929      -45.581665      -13.611173
 H         -18.301544      -45.248970      -12.193363
