20
 generated by VMD
 C         -39.847088     -100.356544      -30.555309
 N         -40.604031     -100.275154      -31.408354
 H         -37.137985     -102.692741      -30.779655
 H         -39.027939     -100.417717      -29.825336
 C         -36.636284     -101.742035      -30.825378
 C         -36.705605     -100.958794      -32.193436
 C         -35.395470     -101.493851      -30.005798
 C         -36.222561      -99.487549      -32.408997
 C         -35.025906      -99.941025      -30.042145
 C         -34.956024      -99.224876      -31.447990
 H         -37.747669     -101.182724      -32.556271
 H         -36.061363     -101.557434      -32.857758
 H         -35.616650     -101.804077      -28.940132
 H         -34.774742     -102.210052      -30.515280
 H         -37.103817      -98.881767      -32.148067
 H         -35.959057      -99.129143      -33.393368
 H         -34.121319      -99.842224      -29.546648
 H         -35.811195      -99.358391      -29.477036
 H         -34.903889      -98.068085      -31.419918
 H         -33.985477      -99.637062      -31.790236
