20
 generated by VMD
 C         -23.492645      -54.829441      -14.838590
 N         -23.257898      -54.236870      -15.832417
 H         -20.410307      -54.780392      -15.022053
 H         -24.199615      -55.377293      -14.165312
 C         -19.523140      -55.246010      -14.757997
 C         -18.829824      -54.717648      -13.536142
 C         -19.066036      -56.516586      -15.418180
 C         -18.956318      -55.731964      -12.459242
 C         -18.852186      -57.519024      -14.230788
 C         -18.171082      -56.972832      -12.981156
 H         -19.219370      -53.789360      -13.174498
 H         -17.840935      -54.531670      -13.818956
 H         -19.885061      -56.855091      -16.092035
 H         -18.208519      -56.337505      -15.950326
 H         -19.991604      -55.943470      -12.117527
 H         -18.468641      -55.322083      -11.605756
 H         -18.268190      -58.429230      -14.564350
 H         -19.841448      -57.902428      -13.905633
 H         -18.078560      -57.749870      -12.189660
 H         -17.178238      -56.635792      -13.242570
