20
 generated by VMD
 C         -24.790827      -70.294792      -16.450556
 N         -24.926767      -70.868340      -15.438443
 H         -23.519053      -67.914169      -19.089405
 H         -24.624933      -69.858330      -17.387180
 C         -24.316912      -68.502373      -19.628443
 C         -23.810072      -69.202393      -20.774244
 C         -25.789253      -68.073997      -19.664930
 C         -24.855787      -70.071167      -21.359625
 C         -26.743700      -69.186943      -20.215788
 C         -26.242676      -69.621803      -21.584749
 H         -22.972153      -69.686768      -20.358561
 H         -23.261099      -68.488098      -21.519148
 H         -26.148033      -68.073067      -18.676279
 H         -25.863993      -67.175110      -20.228125
 H         -24.884895      -70.894981      -20.616413
 H         -24.331600      -70.395935      -22.224545
 H         -27.806026      -68.922768      -20.283316
 H         -26.784145      -70.164070      -19.693710
 H         -26.884529      -70.384964      -22.004637
 H         -26.340689      -68.831589      -22.324900
