20
 generated by VMD
 C         -29.131802      -80.752487      -27.191519
 N         -30.023932      -80.235474      -27.693502
 H         -28.704863      -82.252716      -24.228724
 H         -28.307121      -81.269890      -26.684919
 C         -29.269279      -83.105446      -23.930468
 C         -29.562819      -83.337791      -22.448090
 C         -29.944862      -83.931099      -24.968662
 C         -31.041182      -83.349480      -22.269682
 C         -31.428886      -84.028893      -24.598820
 C         -31.641796      -84.413628      -23.124517
 H         -29.038921      -82.638466      -21.910355
 H         -29.122194      -84.285439      -22.153913
 H         -29.746138      -83.501747      -25.927828
 H         -29.578323      -85.007225      -25.039492
 H         -31.399427      -82.271828      -22.337734
 H         -31.288439      -83.549484      -21.302216
 H         -32.010105      -84.664696      -25.139238
 H         -32.020954      -83.110825      -24.681934
 H         -32.708126      -84.350082      -22.970568
 H         -31.334934      -85.426720      -22.761292
