20
 generated by VMD
 C         -46.632217     -124.563744      -36.882874
 N         -46.968288     -125.036362      -35.850262
 H         -44.817997     -122.258469      -37.896290
 H         -46.215488     -123.941589      -37.629368
 C         -44.655228     -121.917236      -38.965382
 C         -43.310703     -121.853333      -39.718147
 C         -45.771343     -121.160835      -39.516174
 C         -43.589008     -122.073425      -41.235615
 C         -45.991493     -121.349922      -41.007553
 C         -44.699337     -121.275589      -41.775726
 H         -42.623074     -122.656464      -39.439079
 H         -43.016941     -120.830299      -39.484680
 H         -46.755169     -121.199280      -39.002254
 H         -45.466728     -120.169655      -39.384697
 H         -43.918537     -123.121704      -41.397827
 H         -42.691074     -122.062927      -41.791660
 H         -46.686871     -120.642235      -41.472172
 H         -46.334526     -122.426643      -41.364491
 H         -44.795109     -121.407326      -42.821625
 H         -44.257328     -120.250473      -41.793926
