20
 generated by VMD
 C         -69.234451     -180.863068      -62.464348
 N         -70.118584     -180.195602      -62.170170
 H         -67.019875     -181.302963      -60.007565
 H         -68.428513     -181.507889      -62.617249
 C         -66.465836     -180.309174      -60.143734
 C         -65.078331     -180.340195      -60.664455
 C         -67.007080     -179.017334      -59.636490
 C         -64.652153     -179.060852      -61.446949
 C         -66.668427     -177.861710      -60.520542
 C         -65.050652     -177.771408      -60.601658
 H         -64.965179     -181.235489      -61.342289
 H         -64.376770     -180.388107      -59.766731
 H         -68.121941     -179.108093      -59.437759
 H         -66.564629     -178.917542      -58.709343
 H         -65.127457     -179.137146      -62.509083
 H         -63.544270     -179.088989      -61.723728
 H         -66.884155     -176.994675      -59.920185
 H         -67.137909     -177.883194      -61.545670
 H         -64.605545     -176.891983      -61.040745
 H         -64.426270     -177.948517      -59.623371
