20
 generated by VMD
 C         -70.094467     -181.350876      -62.876350
 N         -71.140900     -181.165939      -63.272491
 H         -67.484985     -181.694031      -60.971035
 H         -69.097740     -181.548798      -62.632229
 C         -66.829681     -180.891266      -60.849270
 C         -65.454689     -181.241714      -60.491356
 C         -67.321060     -179.467422      -60.635555
 C         -64.496811     -180.102798      -60.664955
 C         -66.277176     -178.433334      -60.926079
 C         -64.955719     -178.723114      -60.261860
 H         -65.024460     -181.945786      -61.252300
 H         -65.464615     -181.650421      -59.390907
 H         -68.249100     -179.365845      -61.260181
 H         -67.636711     -179.383606      -59.541534
 H         -64.127853     -180.155258      -61.724739
 H         -63.589691     -180.481140      -60.125687
 H         -66.567596     -177.475479      -60.451756
 H         -66.165741     -178.368668      -62.016178
 H         -64.084335     -178.083389      -60.525517
 H         -65.066277     -178.630478      -59.110081
