20
 generated by VMD
 C         -12.374382      -31.518389       -8.899822
 N         -12.458647      -30.654587       -8.170277
 H         -10.831777      -34.984165       -7.670454
 H         -11.949352      -33.881840       -6.812778
 C         -11.345278      -34.855251       -6.717061
 C         -10.343716      -34.821674       -5.516099
 C         -12.341702      -36.005661       -6.628235
 C         -11.114511      -34.601738       -4.191339
 C         -13.013518      -35.838398       -5.331932
 C         -12.196241      -35.692337       -4.062986
 H          -9.683486      -33.930473       -5.724799
 H          -9.802442      -35.760414       -5.493946
 H         -13.068111      -35.957550       -7.465714
 H         -11.804312      -36.974449       -6.661884
 H         -11.700029      -33.679867       -4.225516
 H         -10.367882      -34.670971       -3.341791
 H         -13.637530      -36.772812       -5.113452
 H         -13.670657      -34.985683       -5.330624
 H         -12.864524      -35.555950       -3.195166
 H         -11.757210      -36.640453       -3.888017
