20
 generated by VMD
 C         -20.515478      -57.251671      -16.890209
 N         -20.722982      -56.436039      -16.118292
 H         -22.454803      -59.778126      -17.796143
 H         -20.695244      -57.980438      -17.658993
 C         -22.073006      -60.178204      -16.831514
 C         -22.692949      -59.496288      -15.654376
 C         -21.728668      -61.633121      -16.792694
 C         -22.062231      -59.981236      -14.242094
 C         -20.841763      -61.942516      -15.581242
 C         -21.648327      -61.486641      -14.266693
 H         -23.705847      -59.819202      -15.697069
 H         -22.642365      -58.432362      -15.796143
 H         -22.549053      -62.359665      -16.849829
 H         -21.106314      -61.855156      -17.712299
 H         -22.841583      -59.780720      -13.451781
 H         -21.120340      -59.469868      -13.994238
 H         -19.791718      -61.522274      -15.629807
 H         -20.827463      -63.053829      -15.441092
 H         -22.445988      -62.220303      -14.073625
 H         -20.994671      -61.682159      -13.374778
