20
 generated by VMD
 C         -60.048538     -171.427628      -55.276901
 N         -59.424797     -172.392151      -54.936794
 H         -63.149475     -170.447922      -56.868462
 H         -60.533401     -170.525833      -55.711384
 C         -63.463989     -169.384506      -56.821720
 C         -62.514339     -168.423309      -57.458702
 C         -64.876854     -169.142120      -56.783043
 C         -63.013870     -167.922974      -58.807705
 C         -65.506096     -168.763947      -58.216614
 C         -64.501747     -167.481476      -58.622108
 H         -61.398350     -168.834595      -57.579399
 H         -62.450401     -167.497391      -56.878086
 H         -65.478363     -170.056030      -56.541550
 H         -65.072685     -168.333069      -56.077545
 H         -62.837788     -168.753601      -59.554371
 H         -62.265995     -167.075653      -59.097801
 H         -66.492393     -168.488907      -58.032688
 H         -65.346710     -169.512939      -58.970058
 H         -64.964195     -167.054123      -59.532959
 H         -64.481339     -166.754730      -57.801609
