20
 generated by VMD
 C         -31.230297      -79.532555      -26.311693
 N         -30.859722      -78.418694      -26.351780
 H         -28.897034      -81.066093      -25.341372
 H         -31.648809      -80.506546      -25.925579
 C         -28.891500      -81.675240      -24.508759
 C         -27.790066      -81.588615      -23.429350
 C         -29.918665      -82.694519      -24.205629
 C         -28.464638      -81.266602      -21.997837
 C         -30.516085      -82.396561      -22.850918
 C         -29.528133      -82.387886      -21.657150
 H         -27.039293      -80.787964      -23.582758
 H         -27.284206      -82.489471      -23.205696
 H         -30.734545      -82.764404      -24.953053
 H         -29.436514      -83.633400      -24.121498
 H         -28.838696      -80.229355      -22.186361
 H         -27.842081      -81.320656      -21.078503
 H         -31.316603      -83.082268      -22.489389
 H         -30.933855      -81.462540      -22.927872
 H         -30.103292      -82.063881      -20.797815
 H         -29.079073      -83.354187      -21.590374
