20
 generated by VMD
 C         -10.946490      -34.199459       -9.017691
 N         -11.309331      -33.201630       -8.653730
 H         -11.589578      -37.996788       -8.127589
 H         -11.953228      -37.128696       -6.714251
 C         -12.324275      -37.914986       -7.350414
 C         -12.361586      -39.240040       -6.494027
 C         -13.641314      -37.593273       -8.082545
 C         -13.583789      -39.311703       -5.562931
 C         -14.867402      -37.639156       -7.057754
 C         -14.913138      -38.929035       -6.235332
 H         -11.423530      -39.310318       -5.913444
 H         -12.440394      -40.042095       -7.277307
 H         -13.639301      -36.630810       -8.508226
 H         -13.845581      -38.353596       -8.857266
 H         -13.436348      -38.604965       -4.771795
 H         -13.694366      -40.367420       -5.168316
 H         -15.765965      -37.504097       -7.575182
 H         -14.793364      -36.733318       -6.382275
 H         -15.729723      -38.915810       -5.526746
 H         -15.122869      -39.757046       -6.940569
