20
 generated by VMD
 C         -70.664345     -181.341965      -64.106300
 N         -70.549103     -182.313049      -63.467552
 H         -68.301285     -181.325882      -61.060432
 H         -70.766434     -180.511108      -64.804970
 C         -67.336510     -180.848785      -60.878128
 C         -66.236794     -181.664597      -60.290588
 C         -67.339935     -179.401413      -60.521008
 C         -64.892731     -180.981842      -60.882511
 C         -65.949944     -178.710403      -60.763916
 C         -64.832993     -179.599304      -60.339073
 H         -66.319534     -182.598801      -60.743816
 H         -66.381409     -181.612946      -59.220043
 H         -68.037231     -178.743454      -61.019585
 H         -67.587379     -179.298538      -59.444336
 H         -64.804939     -180.827835      -62.022202
 H         -64.033287     -181.617050      -60.564255
 H         -65.748169     -177.729965      -60.358768
 H         -65.885719     -178.474731      -61.857662
 H         -63.905621     -179.146973      -60.722408
 H         -64.856674     -179.591309      -59.210056
