20
 generated by VMD
 C          -1.646936      -13.085445        0.651195
 N          -0.802317      -13.804255        0.630178
 H          -3.985023      -14.399942        1.960274
 H          -4.697876      -14.204134        0.397328
 C          -4.747264      -14.774324        1.293038
 C          -6.000411      -14.697537        2.153640
 C          -4.415761      -16.272869        0.987070
 C          -7.197105      -15.351197        1.349675
 C          -5.520741      -16.984182        0.261868
 C          -6.811409      -16.768696        1.004411
 H          -6.249539      -13.681196        2.413808
 H          -5.881533      -15.354478        3.060078
 H          -3.496567      -16.242371        0.278310
 H          -4.083581      -16.815840        1.988553
 H          -7.328699      -14.713010        0.480844
 H          -8.097205      -15.358955        1.957454
 H          -5.344984      -18.077997        0.162799
 H          -5.571580      -16.533735       -0.720350
 H          -7.649626      -17.281889        0.510897
 H          -6.654210      -17.230953        1.979636
