20
 generated by VMD
 C         -39.947536      -99.441200      -28.706015
 N         -39.177402     -100.066574      -28.072199
 H         -37.300934      -98.969978      -30.576183
 H         -40.821236      -99.064934      -29.255274
 C         -36.430958      -98.441696      -30.741999
 C         -35.887524      -98.724342      -32.079514
 C         -35.473789      -98.060471      -29.596573
 C         -34.558083      -97.929543      -32.402000
 C         -34.258583      -97.213333      -29.968159
 C         -33.652702      -97.685089      -31.215427
 H         -36.551575      -98.437912      -32.870193
 H         -35.670734      -99.769089      -32.275433
 H         -35.917667      -97.646912      -28.725384
 H         -35.053913      -99.057098      -29.345444
 H         -34.876244      -96.938179      -32.752254
 H         -33.952831      -98.400368      -33.143490
 H         -33.582977      -97.328484      -29.142193
 H         -34.581631      -96.131844      -30.053020
 H         -32.893532      -96.923912      -31.367758
 H         -33.216145      -98.680046      -30.947678
