20
 generated by VMD
 C         -52.063976     -146.209763      -43.989285
 N         -51.631138     -146.449997      -45.087044
 H         -53.258366     -145.341400      -46.970909
 H         -52.280846     -145.927078      -42.991329
 C         -53.852070     -144.875992      -47.754028
 C         -52.878040     -144.767303      -48.854839
 C         -54.882225     -143.790207      -47.571800
 C         -53.503971     -144.212204      -50.046867
 C         -55.405392     -143.136185      -48.850578
 C         -54.210045     -142.894638      -49.768578
 H         -52.453136     -145.755661      -49.118725
 H         -52.070301     -144.138428      -48.666840
 H         -55.698956     -144.240173      -46.991581
 H         -54.282085     -142.973801      -46.976871
 H         -54.258934     -144.886703      -50.434963
 H         -52.662926     -143.940231      -50.730766
 H         -55.972851     -142.220505      -48.530903
 H         -55.971703     -143.793076      -49.399738
 H         -54.535568     -142.497116      -50.750347
 H         -53.513535     -142.153610      -49.484844
