20
 generated by VMD
 C         -40.409195     -117.672241      -34.592159
 N         -39.462822     -117.136238      -35.002029
 H         -41.939831     -116.575867      -36.936184
 H         -41.454494     -117.941017      -34.294266
 C         -42.923130     -116.598175      -37.465004
 C         -42.859402     -116.656212      -38.959713
 C         -44.182148     -116.273438      -36.725071
 C         -44.123077     -117.347069      -39.543221
 C         -45.376194     -116.888847      -37.428596
 C         -45.418186     -116.851723      -38.867973
 H         -41.972137     -117.255013      -39.303581
 H         -42.692192     -115.623932      -39.397945
 H         -44.082771     -116.450226      -35.712795
 H         -44.042774     -115.166077      -36.702477
 H         -43.936207     -118.389000      -39.379604
 H         -44.174141     -117.112305      -40.582230
 H         -46.352352     -116.388664      -37.079868
 H         -45.368000     -117.984573      -37.054565
 H         -46.332809     -117.514450      -39.336342
 H         -45.559608     -115.749214      -39.143559
