20
 generated by VMD
 C         -77.476158     -202.926956      -69.245773
 N         -77.593414     -203.749283      -68.472923
 H         -75.083649     -201.559250      -67.283203
 H         -77.482155     -202.224197      -70.034966
 C         -74.468315     -201.113297      -68.056519
 C         -75.262520     -199.978424      -68.596031
 C         -73.806389     -202.104065      -68.889107
 C         -74.531990     -199.287292      -69.726685
 C         -73.186974     -201.473618      -70.108971
 C         -74.195831     -200.531113      -70.699402
 H         -75.434723     -199.322571      -67.740204
 H         -76.225800     -200.393799      -68.960205
 H         -72.962219     -202.514938      -68.352661
 H         -74.516922     -202.881927      -69.175972
 H         -73.591347     -198.979996      -69.349792
 H         -75.095901     -198.575104      -70.295837
 H         -72.975281     -202.328888      -70.776947
 H         -72.307381     -200.891327      -69.920563
 H         -73.796181     -200.019958      -71.589867
 H         -75.215256     -200.975800      -70.931854
