20
 generated by VMD
 C         -50.471355     -131.889145      -47.054352
 N         -49.979847     -132.254578      -48.083683
 H         -48.732330     -131.368317      -43.607647
 H         -51.103344     -131.317047      -46.330894
 C         -48.723396     -132.271271      -42.944378
 C         -49.482361     -133.459671      -43.543812
 C         -48.529003     -132.132614      -41.503166
 C         -49.120796     -134.758713      -42.764801
 C         -48.356506     -133.419662      -40.792072
 C         -49.308132     -134.581955      -41.285671
 H         -49.197048     -133.625504      -44.627907
 H         -50.601494     -133.371323      -43.517876
 H         -47.655243     -131.406998      -41.273228
 H         -49.458740     -131.741318      -41.089043
 H         -48.088512     -135.044327      -43.035641
 H         -49.706116     -135.673141      -43.029812
 H         -48.447109     -133.372375      -39.712696
 H         -47.308640     -133.848801      -40.838516
 H         -48.976997     -135.499374      -40.706554
 H         -50.235710     -134.135513      -41.040886
