20
 generated by VMD
 C         -40.692524     -100.097939      -29.743616
 N         -40.365799     -100.223755      -28.661242
 H         -37.345196     -100.097221      -30.557322
 H         -41.030029      -99.743980      -30.754572
 C         -36.453571      -99.508652      -30.860331
 C         -36.022476      -99.436798      -32.207058
 C         -35.411926      -99.337265      -29.742859
 C         -34.817749      -98.441124      -32.498692
 C         -34.216072      -98.292252      -29.919901
 C         -33.713177      -98.245010      -31.420263
 H         -36.924732      -99.275658      -32.876961
 H         -35.679600     -100.389709      -32.538116
 H         -35.911362      -99.061981      -28.780720
 H         -35.061707     -100.305122      -29.505920
 H         -35.388393      -97.570000      -32.693092
 H         -34.422974      -98.630379      -33.522232
 H         -33.331543      -98.667831      -29.323040
 H         -34.448879      -97.356628      -29.499395
 H         -33.063259      -97.456444      -31.647575
 H         -33.147587      -99.211090      -31.662611
