20
 generated by VMD
 C          -0.999036      -10.492307        1.082501
 N          -1.710577       -9.708123        0.732431
 H          -3.395238      -12.422714        0.855912
 H          -4.337173      -11.996652        2.351766
 C          -4.056128      -12.837098        1.637609
 C          -3.214154      -13.984818        2.370788
 C          -5.277650      -13.446002        0.945556
 C          -4.033799      -14.823591        3.314444
 C          -6.153490      -14.190645        1.980641
 C          -5.325344      -15.314726        2.645470
 H          -2.388551      -13.458538        2.985872
 H          -2.699126      -14.605968        1.559456
 H          -5.792768      -12.678760        0.438965
 H          -4.936927      -14.028396        0.112904
 H          -4.450262      -14.280482        4.190095
 H          -3.523538      -15.750660        3.645385
 H          -7.013023      -14.651625        1.453371
 H          -6.516653      -13.429715        2.691968
 H          -5.928902      -15.956687        3.280169
 H          -4.965051      -15.890205        1.839024
