20
 generated by VMD
 C         -43.269299     -121.133568      -35.548172
 N         -42.988792     -120.594116      -34.531830
 H         -44.245029     -121.707268      -38.590157
 H         -43.492584     -121.480209      -36.604061
 C         -44.370487     -120.751228      -39.017761
 C         -43.227768     -120.048630      -39.664547
 C         -45.450291     -119.905899      -38.412148
 C         -43.730515     -118.979767      -40.594959
 C         -45.855148     -118.786171      -39.336613
 C         -44.680511     -118.052742      -39.999802
 H         -42.658142     -120.843315      -40.209843
 H         -42.416866     -119.700989      -38.911011
 H         -46.157051     -120.692123      -38.197643
 H         -44.981693     -119.609917      -37.489941
 H         -44.063721     -119.599075      -41.484371
 H         -42.949646     -118.357582      -41.062519
 H         -46.734509     -118.268471      -38.970001
 H         -46.359928     -119.317696      -40.123997
 H         -45.162037     -117.397446      -40.699062
 H         -44.180981     -117.290039      -39.416779
