20
 generated by VMD
 C         -70.371147     -196.687317      -65.263763
 N         -69.626961     -197.339340      -65.852409
 H         -74.066437     -196.056641      -65.294060
 H         -70.909592     -195.998779      -64.650513
 C         -73.770096     -195.421417      -66.123253
 C         -73.137978     -194.093475      -66.070068
 C         -74.269943     -195.987045      -67.498047
 C         -72.448853     -193.939606      -67.380905
 C         -74.599991     -194.710785      -68.388512
 C         -73.417068     -193.686798      -68.565224
 H         -72.384087     -194.194016      -65.214729
 H         -73.866249     -193.316269      -66.066216
 H         -73.551735     -196.703751      -68.043587
 H         -75.185478     -196.591049      -67.401215
 H         -71.925400     -194.934555      -67.574509
 H         -71.674767     -193.133316      -67.366653
 H         -75.505913     -194.255493      -68.018959
 H         -74.734970     -194.935959      -69.476662
 H         -72.984985     -193.804810      -69.510094
 H         -73.760811     -192.639603      -68.605804
