20
 generated by VMD
 C         -19.828667      -57.478333      -16.890268
 N         -19.220695      -57.934807      -17.722885
 H         -22.706846      -59.543644      -17.119925
 H         -20.541872      -57.117893      -16.021627
 C         -22.694851      -60.488731      -16.485111
 C         -23.956066      -61.199631      -16.314646
 C         -21.349884      -60.884720      -15.807653
 C         -23.657972      -62.671566      -16.048893
 C         -21.445091      -62.227558      -15.093226
 C         -22.845238      -62.795414      -14.764492
 H         -24.496231      -61.163204      -17.205299
 H         -24.392281      -60.825333      -15.403502
 H         -20.767643      -61.019032      -16.729090
 H         -20.867859      -60.058422      -15.275458
 H         -23.108391      -63.070850      -16.890629
 H         -24.604486      -63.197792      -15.939067
 H         -20.757057      -62.193062      -14.268167
 H         -20.977255      -63.027264      -15.664289
 H         -22.701408      -63.850441      -14.478010
 H         -23.339872      -62.270893      -13.940297
