20
 generated by VMD
 C         -19.203632      -62.756058      -17.291254
 N         -20.247314      -62.614727      -16.778130
 H         -22.569239      -64.086494      -16.698042
 H         -18.058014      -62.678268      -17.562374
 C         -23.430977      -64.496887      -17.142448
 C         -23.923458      -64.086853      -18.483326
 C         -24.360931      -65.049034      -16.250811
 C         -24.653601      -65.303734      -19.224842
 C         -25.011230      -66.250687      -16.984653
 C         -25.661676      -65.938721      -18.370600
 H         -23.039032      -63.900932      -19.190172
 H         -24.477552      -63.107475      -18.547029
 H         -23.816349      -65.490097      -15.307349
 H         -25.019741      -64.193222      -16.033400
 H         -23.895681      -66.048622      -19.545536
 H         -25.135773      -65.035988      -20.128963
 H         -25.842987      -66.616211      -16.340702
 H         -24.386274      -67.119675      -17.153719
 H         -26.253843      -66.810318      -18.722563
 H         -26.294680      -65.134903      -18.131756
