20
 generated by VMD
 C         -12.837228      -31.226564       -8.232406
 N         -12.375536      -30.212677       -8.073068
 H         -11.698062      -33.131985       -7.313892
 H         -12.306324      -32.849316       -5.709695
 C         -11.735658      -33.553165       -6.289543
 C         -10.348052      -33.423038       -5.660697
 C         -12.221107      -34.957672       -6.053132
 C         -10.286321      -33.666466       -4.202086
 C         -12.210155      -35.282475       -4.548348
 C         -10.806396      -35.054543       -3.884843
 H          -9.943425      -32.404171       -5.863732
 H          -9.693440      -34.078773       -6.194611
 H         -13.175967      -35.114460       -6.559196
 H         -11.493072      -35.577171       -6.608262
 H         -10.772437      -32.909027       -3.573929
 H          -9.304608      -33.625694       -3.727361
 H         -12.485401      -36.269634       -4.354047
 H         -13.038698      -34.685154       -4.039327
 H         -10.783766      -35.190918       -2.823246
 H         -10.114884      -35.814037       -4.344573
