20
 generated by VMD
 C         -74.549019     -201.015564      -66.080269
 N         -73.393837     -200.926086      -66.206436
 H         -76.410370     -198.850449      -68.719666
 H         -75.614677     -201.216766      -66.075912
 C         -75.447037     -198.304108      -68.740082
 C         -75.005066     -197.118805      -67.939034
 C         -74.459496     -198.993912      -69.714859
 C         -73.481049     -196.700333      -68.141907
 C         -73.234108     -198.219498      -70.029640
 C         -72.577477     -197.882919      -68.671379
 H         -75.278046     -197.201645      -66.921120
 H         -75.736160     -196.298218      -68.317345
 H         -74.237564     -199.969284      -69.205460
 H         -74.931908     -199.370605      -70.718788
 H         -73.127731     -196.352341      -67.181694
 H         -73.609589     -195.779785      -68.701881
 H         -73.478783     -197.298920      -70.643661
 H         -72.491882     -198.880447      -70.576324
 H         -72.611397     -198.777924      -68.015350
 H         -71.488129     -197.472961      -68.715134
