20
 generated by VMD
 C         -22.773870      -52.368275      -11.972338
 N         -23.009453      -52.539364      -10.890887
 H         -19.912550      -52.737267      -14.161932
 H         -22.881958      -52.350540      -13.208604
 C         -18.879919      -52.730312      -13.878992
 C         -18.022984      -51.863556      -14.732478
 C         -18.275984      -53.716782      -12.909653
 C         -16.559044      -52.329983      -14.653816
 C         -17.015087      -53.138531      -12.176844
 C         -16.255543      -52.203159      -13.123072
 H         -18.217991      -50.865284      -14.415071
 H         -18.310762      -51.931618      -15.816143
 H         -19.063826      -53.914429      -12.097216
 H         -18.080639      -54.651623      -13.445457
 H         -15.947898      -51.675255      -15.320229
 H         -16.400505      -53.380623      -14.977307
 H         -16.340681      -53.924862      -11.833586
 H         -17.378717      -52.587872      -11.266665
 H         -16.569624      -51.220097      -12.807310
 H         -15.205710      -52.285580      -12.908496
