20
 generated by VMD
 C         -57.936272     -166.386200      -56.300259
 N         -58.296345     -167.150345      -55.460854
 H         -60.823116     -165.625854      -54.593288
 H         -57.631523     -165.686157      -57.080986
 C         -61.614834     -165.576447      -55.302914
 C         -61.727146     -166.815796      -56.190319
 C         -62.416531     -164.386673      -55.559208
 C         -63.236782     -167.196152      -56.204815
 C         -63.905853     -164.847580      -55.533360
 C         -64.185005     -165.980408      -56.574242
 H         -61.018566     -167.622040      -55.772465
 H         -61.347637     -166.806427      -57.264496
 H         -62.223461     -163.731735      -54.755081
 H         -62.090084     -163.919586      -56.534756
 H         -63.452656     -167.510162      -55.191219
 H         -63.403522     -167.965912      -56.978455
 H         -64.607124     -164.085846      -55.558254
 H         -64.150276     -165.251862      -54.522224
 H         -65.197556     -166.412079      -56.427509
 H         -64.122063     -165.824829      -57.627544
