20
 generated by VMD
 C         -40.933060     -104.179474      -36.484016
 N         -41.714283     -105.014732      -36.332485
 H         -38.681152     -104.667061      -33.515907
 H         -40.154888     -103.490913      -36.789345
 C         -38.585548     -105.606682      -33.092747
 C         -37.259117     -105.773933      -32.322311
 C         -39.416088     -106.843109      -33.446636
 C         -37.285233     -106.688492      -31.185665
 C         -39.535759     -107.682999      -32.176353
 C         -38.140007     -107.935356      -31.637674
 H         -37.117027     -104.733742      -31.976877
 H         -36.538097     -106.121140      -33.003971
 H         -40.292011     -106.336800      -33.913834
 H         -38.993336     -107.431961      -34.227612
 H         -37.869717     -106.406540      -30.306313
 H         -36.288521     -107.083626      -30.842758
 H         -39.959198     -108.791306      -32.341892
 H         -40.263046     -107.273628      -31.418243
 H         -38.312233     -108.540848      -30.771500
 H         -37.432766     -108.588882      -32.278751
