20
 generated by VMD
 C         -21.541718      -65.779167      -16.987572
 N         -20.975122      -66.360268      -16.175814
 H         -24.442190      -63.885185      -18.206930
 H         -22.009275      -65.360970      -17.880064
 C         -24.428267      -64.924026      -18.438675
 C         -24.506685      -65.391930      -19.821045
 C         -25.372948      -65.738457      -17.449234
 C         -24.232805      -66.844368      -19.976971
 C         -25.166176      -67.153465      -17.578690
 C         -25.281374      -67.590500      -19.053766
 H         -23.738449      -64.885185      -20.436241
 H         -25.467451      -65.192429      -20.143312
 H         -25.136488      -65.435097      -16.419106
 H         -26.469862      -65.439537      -17.598934
 H         -23.137823      -67.054344      -19.693619
 H         -24.468828      -67.313423      -20.964735
 H         -25.869713      -67.701958      -16.932842
 H         -24.151245      -67.536232      -17.343266
 H         -25.028013      -68.660507      -18.990635
 H         -26.276445      -67.430481      -19.404716
