20
 generated by VMD
 C         -24.781893      -70.310905      -16.449167
 N         -24.938124      -70.866119      -15.445503
 H         -23.570484      -67.855034      -19.141760
 H         -24.697451      -69.877342      -17.383512
 C         -24.312067      -68.506424      -19.625248
 C         -23.820131      -69.206505      -20.762062
 C         -25.787138      -68.086250      -19.671848
 C         -24.841646      -70.081467      -21.356068
 C         -26.756037      -69.201149      -20.226889
 C         -26.240995      -69.616730      -21.590755
 H         -22.968279      -69.660316      -20.362309
 H         -23.296247      -68.614525      -21.505922
 H         -26.133961      -68.009941      -18.655094
 H         -25.783012      -67.217812      -20.208515
 H         -24.842514      -70.970589      -20.665138
 H         -24.359278      -70.325294      -22.269638
 H         -27.775719      -68.871262      -20.294287
 H         -26.856796      -70.110527      -19.678604
 H         -26.888962      -70.388412      -22.002619
 H         -26.410948      -68.806328      -22.305597
