20
 generated by VMD
 C         -12.061482      -31.519566       -8.459541
 N         -12.208249      -30.635590       -7.767908
 H         -11.051150      -34.909882       -7.844316
 H         -12.367380      -34.109673       -7.137607
 C         -11.588473      -34.744648       -6.894202
 C         -10.677434      -34.131691       -5.913036
 C         -12.301091      -36.002071       -6.349002
 C         -11.207096      -34.049702       -4.547410
 C         -12.827147      -35.979576       -4.937942
 C         -11.736398      -35.372261       -4.010315
 H         -10.321527      -33.166294       -6.209125
 H          -9.826259      -34.824406       -5.903224
 H         -13.043925      -36.377232       -7.032871
 H         -11.488997      -36.737438       -6.381275
 H         -11.986236      -33.258354       -4.483374
 H         -10.465234      -33.674934       -3.831142
 H         -13.112336      -36.948627       -4.545074
 H         -13.729942      -35.315411       -4.797591
 H         -12.089839      -35.283306       -2.998405
 H         -10.917301      -36.167572       -4.019593
