20
 generated by VMD
 C         -28.269463      -87.071320      -27.078392
 N         -27.622271      -86.997360      -26.158281
 H         -31.159506      -88.358879      -25.259790
 H         -28.790131      -87.099442      -28.096802
 C         -32.143219      -88.173576      -25.661413
 C         -33.285381      -88.440636      -24.893621
 C         -32.339436      -88.377480      -27.121136
 C         -34.524647      -87.708748      -25.316687
 C         -33.543686      -87.459457      -27.565613
 C         -34.795074      -87.880028      -26.844860
 H         -33.187298      -87.983887      -23.849079
 H         -33.374817      -89.520615      -25.046957
 H         -31.398933      -88.091324      -27.700735
 H         -32.582550      -89.452644      -27.265291
 H         -34.496250      -86.671783      -25.010130
 H         -35.415710      -87.995087      -24.689976
 H         -33.736164      -87.443710      -28.622244
 H         -33.112953      -86.404198      -27.323788
 H         -35.710369      -87.278320      -27.059507
 H         -35.089386      -89.020821      -26.873632
