20
 generated by VMD
 C         -58.886082     -161.248138      -56.554607
 N         -58.532120     -160.197342      -57.037380
 H         -59.052139     -164.198624      -55.148136
 H         -59.287876     -162.198517      -56.120750
 C         -59.777004     -163.594666      -54.557480
 C         -59.504795     -163.305374      -53.090954
 C         -61.162842     -163.539337      -54.955208
 C         -60.421646     -162.209259      -52.529232
 C         -62.052593     -162.432144      -54.477325
 C         -61.851055     -162.210281      -53.039108
 H         -58.499100     -162.844559      -53.106304
 H         -59.717564     -164.326309      -52.609406
 H         -61.207939     -163.529572      -56.021572
 H         -61.624321     -164.469772      -54.580704
 H         -59.985268     -161.203049      -52.503197
 H         -60.553074     -162.337112      -51.494087
 H         -63.105343     -162.597244      -54.743412
 H         -62.066582     -161.452759      -55.044838
 H         -62.378990     -161.340866      -52.687309
 H         -62.270386     -163.092453      -52.479168
