20
 generated by VMD
 C         -19.379545      -62.447887      -17.486668
 N         -20.177755      -62.343853      -16.658426
 H         -22.335304      -64.199554      -16.715452
 H         -18.835499      -62.492722      -18.361532
 C         -23.217918      -64.648361      -17.082630
 C         -23.645805      -64.216599      -18.497293
 C         -24.258896      -65.165718      -16.134615
 C         -24.615835      -65.094711      -19.193298
 C         -25.146315      -66.119583      -16.873867
 C         -25.678612      -65.584145      -18.239189
 H         -22.901634      -63.952183      -19.186584
 H         -24.137278      -63.297466      -18.338711
 H         -23.704975      -65.573906      -15.203614
 H         -24.708815      -64.217674      -15.684792
 H         -24.077713      -66.010666      -19.479784
 H         -25.090944      -64.576958      -20.032568
 H         -25.947914      -66.458794      -16.214830
 H         -24.518208      -66.982948      -17.151518
 H         -26.046013      -66.472679      -18.744379
 H         -26.453926      -64.782921      -18.176607
