20
 generated by VMD
 C         -79.635757     -205.387848      -71.705551
 N         -79.822212     -206.518433      -71.570305
 H         -76.572533     -204.256882      -72.053352
 H         -79.527596     -204.368057      -71.867706
 C         -76.205551     -204.162323      -71.043053
 C         -75.470573     -202.883041      -70.628456
 C         -76.457191     -205.219635      -70.054787
 C         -74.019562     -203.276520      -70.197220
 C         -75.206207     -205.464615      -69.130692
 C         -73.922081     -204.715698      -69.753082
 H         -75.946510     -202.472000      -69.763916
 H         -75.387527     -202.078308      -71.438950
 H         -77.323616     -205.039413      -69.392319
 H         -76.642235     -206.134598      -70.645508
 H         -73.511284     -202.633743      -69.550262
 H         -73.427063     -203.321136      -71.086128
 H         -75.062691     -206.537292      -69.001984
 H         -75.237228     -205.092041      -68.036842
 H         -73.148499     -204.941071      -69.057808
 H         -73.727844     -205.353516      -70.665375
