20
 generated by VMD
 C         -11.694708      -37.394447       -7.175582
 N         -11.239614      -37.863674       -8.113895
 H         -12.441287      -40.652180       -8.314960
 H         -13.552526      -40.046700       -7.218606
 C         -13.477015      -40.577526       -8.127872
 C         -14.115360      -41.972057       -7.934081
 C         -14.170537      -39.791073       -9.284199
 C         -15.616848      -41.947247       -7.870961
 C         -15.665474      -39.651577       -8.932897
 C         -16.288820      -41.034546       -8.987568
 H         -13.705687      -42.540783       -7.046685
 H         -13.790869      -42.671951       -8.715674
 H         -13.718142      -38.758362       -9.496080
 H         -14.102155      -40.253788      -10.281151
 H         -16.007669      -41.610771       -6.869249
 H         -15.984408      -42.984619       -7.871872
 H         -16.143398      -38.922630       -9.661980
 H         -15.804391      -39.278027       -7.938989
 H         -17.377298      -40.949581       -8.761619
 H         -16.190979      -41.498810       -9.950445
