20
 generated by VMD
 C         -74.674919     -201.576477      -66.033134
 N         -73.668259     -200.958450      -66.006020
 H         -76.347862     -198.910477      -68.469879
 H         -75.560478     -202.129715      -66.084991
 C         -75.457214     -198.416794      -68.810402
 C         -75.025436     -197.156586      -68.183014
 C         -74.537071     -198.958099      -69.909348
 C         -73.544136     -196.887283      -68.104866
 C         -73.126205     -198.388382      -70.074524
 C         -72.558105     -197.816895      -68.751480
 H         -75.317780     -197.238602      -67.189621
 H         -75.440102     -196.213593      -68.613319
 H         -74.416740     -200.067154      -69.808823
 H         -75.090340     -198.691101      -70.913811
 H         -73.211548     -196.771042      -67.065414
 H         -73.206367     -195.984665      -68.566872
 H         -73.130333     -197.510391      -70.803253
 H         -72.530815     -199.177414      -70.504868
 H         -72.288185     -198.783646      -68.129166
 H         -71.647499     -197.288544      -68.882652
