20
 generated by VMD
 C         -62.376564     -172.339645      -54.970722
 N         -61.475262     -172.932663      -55.265198
 H         -61.590942     -171.053192      -58.456566
 H         -63.245647     -171.841446      -54.542336
 C         -62.472439     -170.364212      -58.567844
 C         -62.435349     -168.934921      -57.927544
 C         -63.797615     -170.905090      -58.154144
 C         -63.662281     -168.034943      -58.388023
 C         -64.983490     -170.054123      -58.627434
 C         -64.914513     -168.719620      -57.982334
 H         -61.538979     -168.371567      -58.216694
 H         -62.440151     -169.026169      -56.804916
 H         -64.011871     -171.907059      -58.597507
 H         -63.737385     -170.996140      -57.098362
 H         -63.580029     -167.948334      -59.504429
 H         -63.427258     -166.944519      -58.041538
 H         -65.952560     -170.460785      -58.326019
 H         -65.093460     -169.911194      -59.724899
 H         -65.767448     -168.239304      -58.514027
 H         -65.114357     -168.706711      -56.930416
