20
 generated by VMD
 C         -40.920887     -102.239464      -34.952095
 N         -41.563297     -102.037239      -35.874210
 H         -39.755867     -104.309952      -31.820271
 H         -40.559544     -102.367409      -33.993626
 C         -38.799374     -104.674919      -31.974775
 C         -37.770042     -104.075775      -32.845654
 C         -38.221413     -105.731812      -30.976515
 C         -36.560429     -103.712608      -32.058109
 C         -36.891808     -105.557983      -30.344591
 C         -35.885044     -104.924973      -31.322395
 H         -38.272396     -103.222023      -33.347908
 H         -37.600090     -104.829720      -33.652435
 H         -38.936085     -105.910599      -30.214289
 H         -38.283031     -106.693848      -31.621540
 H         -36.874195     -102.989639      -31.253031
 H         -35.705364     -103.251907      -32.619690
 H         -36.566181     -106.586433      -29.951763
 H         -36.855446     -104.869537      -29.542557
 H         -34.936226     -104.523834      -30.740824
 H         -35.438648     -105.565903      -32.063618
