20
 generated by VMD
 C         -41.877148     -101.971298      -33.776714
 N         -40.740425     -101.907738      -34.068192
 H         -39.214283     -103.742165      -32.679825
 H         -42.862087     -102.267784      -33.365032
 C         -38.301231     -103.866333      -32.217598
 C         -37.057999     -103.463722      -33.089294
 C         -38.003021     -104.521713      -30.932426
 C         -35.804340     -103.054939      -32.345112
 C         -36.782314     -103.785988      -30.281055
 C         -35.537746     -103.867302      -31.066856
 H         -37.460594     -102.672012      -33.767006
 H         -36.798332     -104.320946      -33.647896
 H         -38.753391     -104.284492      -30.106997
 H         -37.908447     -105.552849      -31.088778
 H         -35.869141     -101.937408      -32.221508
 H         -34.896339     -103.269974      -32.949474
 H         -36.625484     -104.217484      -29.360260
 H         -37.158039     -102.719856      -30.057966
 H         -34.658318     -103.455078      -30.605871
 H         -35.198288     -104.914032      -31.318953
