20
 generated by VMD
 C         -12.730348      -27.961834       -4.207846
 N         -13.807663      -27.732229       -4.419261
 H         -10.498700      -29.382175       -2.449777
 H         -10.530728      -28.043615       -3.544005
 C          -9.891443      -28.849878       -3.185400
 C          -9.438717      -29.639860       -4.397678
 C          -8.778627      -28.187002       -2.397721
 C          -8.354913      -28.898407       -5.203115
 C          -7.628704      -27.628819       -3.208944
 C          -7.212694      -28.477633       -4.408514
 H         -10.244036      -29.851896       -5.079175
 H          -8.823687      -30.552935       -4.046111
 H          -9.198728      -27.450512       -1.754510
 H          -8.383369      -28.978180       -1.791858
 H          -8.866758      -27.994183       -5.674467
 H          -8.051152      -29.636990       -5.986953
 H          -6.789085      -27.462868       -2.564353
 H          -8.051681      -26.691177       -3.660680
 H          -6.460888      -27.926384       -4.986225
 H          -6.647647      -29.287979       -3.982039
