20
 generated by VMD
 C         -70.202354     -182.846710      -65.945518
 N         -71.111084     -183.441147      -65.629105
 H         -67.816147     -182.400528      -63.082848
 H         -69.339630     -182.199524      -66.169449
 C         -67.388695     -182.246582      -62.098312
 C         -67.662903     -183.221695      -61.045574
 C         -66.983315     -180.846313      -61.852898
 C         -66.629295     -183.154663      -59.830200
 C         -66.212547     -180.611511      -60.566525
 C         -66.545364     -181.668411      -59.401531
 H         -67.632996     -184.232971      -61.618919
 H         -68.658890     -183.177322      -60.576874
 H         -66.441193     -180.532959      -62.758339
 H         -67.923492     -180.239838      -61.989780
 H         -65.617142     -183.278641      -60.171707
 H         -67.018837     -183.792572      -59.166531
 H         -66.232079     -179.557098      -60.343674
 H         -65.148682     -180.884537      -60.648827
 H         -65.818199     -181.541840      -58.619057
 H         -67.469269     -181.306854      -58.909725
