20
 generated by VMD
 C          -4.335825      -20.888798        2.711241
 N          -4.877364      -19.911043        2.775386
 H          -5.170873      -19.044481       -0.328702
 H          -5.888699      -20.674849       -0.336264
 C          -5.939525      -19.658459       -0.772291
 C          -5.623715      -19.740416       -2.297578
 C          -7.253984      -18.931665       -0.549621
 C          -6.723824      -20.472639       -3.072997
 C          -8.377481      -19.684126       -1.181679
 C          -8.155114      -19.997757       -2.698024
 H          -4.753579      -20.320004       -2.439455
 H          -5.556347      -18.740082       -2.744483
 H          -7.358571      -18.821997        0.609763
 H          -7.086607      -17.943163       -1.073119
 H          -6.690484      -21.544041       -2.905451
 H          -6.456026      -20.355568       -4.148609
 H          -9.279863      -19.083920       -1.013909
 H          -8.495792      -20.611622       -0.645321
 H          -8.803938      -20.789778       -3.007195
 H          -8.387081      -19.064276       -3.207072
