20
 generated by VMD
 C         -22.183599      -67.316216      -16.312069
 N         -21.085157      -67.015259      -16.146610
 H         -23.660650      -65.676376      -17.796696
 H         -23.161818      -67.543129      -16.792324
 C         -24.407787      -66.060440      -18.456198
 C         -23.850483      -66.446167      -19.850895
 C         -25.832390      -66.270195      -18.250736
 C         -24.422060      -67.853416      -20.238710
 C         -26.376160      -67.681320      -18.721889
 C         -25.988665      -68.128555      -20.075802
 H         -22.749708      -66.481071      -19.906458
 H         -24.264791      -65.665527      -20.608414
 H         -25.952007      -66.169662      -17.162800
 H         -26.426056      -65.546959      -18.869137
 H         -23.921125      -68.692474      -19.680618
 H         -24.205364      -67.992149      -21.328484
 H         -27.494556      -67.667961      -18.587170
 H         -26.036983      -68.521568      -18.015471
 H         -26.074566      -69.222252      -20.042402
 H         -26.742414      -67.853424      -20.796690
