20
 generated by VMD
 C         -12.142911      -31.408066       -9.003352
 N         -12.798465      -31.999485       -9.653560
 H         -10.544105      -34.330097       -6.805695
 H         -11.418562      -33.932182       -5.291240
 C         -11.204941      -34.757042       -6.024148
 C         -10.555923      -35.905258       -5.187560
 C         -12.455030      -35.254215       -6.733980
 C         -11.503126      -36.427200       -4.044018
 C         -13.428631      -35.817699       -5.745048
 C         -12.772508      -36.889938       -4.827425
 H          -9.603242      -35.570698       -4.734879
 H         -10.203480      -36.782681       -5.779849
 H         -12.944528      -34.405022       -7.256269
 H         -12.152758      -35.936241       -7.548387
 H         -11.675425      -35.552376       -3.334763
 H         -11.129225      -37.195690       -3.345402
 H         -14.225721      -36.235325       -6.300882
 H         -13.997340      -34.982758       -5.155646
 H         -13.560924      -37.169300       -4.139355
 H         -12.488805      -37.721619       -5.422159
