20
 generated by VMD
 C         -28.436235      -74.038818      -18.406183
 N         -29.187840      -73.371140      -17.849495
 H         -25.251572      -71.811317      -18.768147
 H         -27.769812      -74.684860      -18.984550
 C         -25.335505      -71.948944      -19.858831
 C         -24.765234      -73.145859      -20.554543
 C         -25.684910      -70.735420      -20.557285
 C         -25.265181      -73.213852      -22.130600
 C         -26.382307      -71.002274      -21.864246
 C         -25.442688      -71.787521      -22.781256
 H         -25.075327      -74.086891      -20.162800
 H         -23.759315      -73.076202      -20.523621
 H         -26.293293      -70.067032      -19.977436
 H         -24.762842      -70.152939      -20.762634
 H         -26.169416      -73.740715      -22.075537
 H         -24.598932      -73.888664      -22.633160
 H         -26.868429      -70.180756      -22.361837
 H         -27.311905      -71.543190      -21.600269
 H         -26.063091      -71.945641      -23.739828
 H         -24.438587      -71.396103      -22.959358
