20
 generated by VMD
 C         -67.727272     -191.691010      -66.903198
 N         -66.712326     -192.213654      -66.956268
 H         -70.757309     -189.256653      -66.415741
 H         -68.762794     -191.427704      -66.937576
 C         -71.234749     -189.743408      -65.590454
 C         -71.805298     -191.140823      -65.826408
 C         -71.189079     -189.251556      -64.128456
 C         -73.130241     -191.288483      -65.182129
 C         -72.605492     -189.465881      -63.481335
 C         -73.345100     -190.701538      -63.732784
 H         -71.112305     -191.867523      -65.308556
 H         -71.912834     -191.233521      -66.861618
 H         -70.462349     -189.930984      -63.620308
 H         -71.016083     -188.221130      -64.087662
 H         -73.484810     -192.394073      -65.262581
 H         -73.943848     -190.833038      -65.790504
 H         -73.357246     -188.672180      -63.766048
 H         -72.560944     -189.203812      -62.325882
 H         -73.038986     -191.608368      -63.095177
 H         -74.325478     -190.427399      -63.577477
