20
 generated by VMD
 C          -2.638597      -16.853588        2.826752
 N          -2.131605      -16.868366        1.829546
 H          -4.448784      -16.018223        0.274409
 H          -4.479759      -17.369961       -0.794187
 C          -5.130877      -16.767630       -0.194313
 C          -6.263976      -16.120110       -0.970982
 C          -5.654979      -17.744085        0.838385
 C          -7.255285      -17.188047       -1.575337
 C          -6.569438      -18.792692        0.240853
 C          -7.710411      -18.161560       -0.480056
 H          -5.874623      -15.420879       -1.709341
 H          -6.939106      -15.547471       -0.309627
 H          -4.860121      -18.303148        1.402148
 H          -6.369967      -17.252920        1.586755
 H          -6.796810      -17.721855       -2.388649
 H          -8.158411      -16.661497       -1.836896
 H          -7.034192      -19.310659        1.115047
 H          -6.021681      -19.515041       -0.367705
 H          -8.241265      -18.999607       -0.993674
 H          -8.451152      -17.678793        0.195113
