20
 generated by VMD
 C         -62.786446     -174.725235      -54.605885
 N         -63.217999     -174.212128      -55.567230
 H         -63.258739     -172.999542      -58.141216
 H         -62.414959     -175.085785      -53.663002
 C         -63.727913     -172.122986      -58.448277
 C         -63.813305     -170.874573      -57.501648
 C         -64.423218     -172.067734      -59.859291
 C         -63.811222     -169.576431      -58.279728
 C         -64.236366     -170.725876      -60.461582
 C         -64.654518     -169.686707      -59.461323
 H         -62.999371     -170.920532      -56.870941
 H         -64.788094     -171.086380      -56.907360
 H         -64.004860     -172.917526      -60.367825
 H         -65.436905     -172.400620      -59.679470
 H         -62.854523     -169.447266      -58.643204
 H         -64.143463     -168.778214      -57.675991
 H         -64.876907     -170.571091      -61.374783
 H         -63.238827     -170.517792      -60.807507
 H         -64.510521     -168.736664      -59.929417
 H         -65.693466     -169.775162      -59.215954
