20
 generated by VMD
 C         -12.737901      -30.099871       -8.353711
 N         -13.694457      -30.656414       -8.240326
 H         -11.063650      -30.735571       -5.232331
 H         -10.734599      -31.202087       -3.666500
 C         -10.808214      -31.613058       -4.682345
 C          -9.458579      -32.234097       -4.938190
 C         -11.948840      -32.642681       -4.765195
 C          -9.158648      -33.596188       -4.313890
 C         -11.711493      -34.019127       -4.162146
 C         -10.329885      -34.612381       -4.576937
 H          -8.786349      -31.465322       -4.509708
 H          -9.383692      -32.333637       -6.012123
 H         -12.821420      -32.179180       -4.275660
 H         -12.161518      -32.767212       -5.835416
 H          -9.080757      -33.476658       -3.183761
 H          -8.178483      -33.945248       -4.757711
 H         -12.509528      -34.653553       -4.504510
 H         -11.650743      -33.990906       -3.011863
 H         -10.087601      -35.515915       -4.081155
 H         -10.384510      -34.812889       -5.663363
