20
 generated by VMD
 C         -50.682392     -129.554260      -45.711205
 N         -51.213306     -130.600266      -45.437401
 H         -48.437660     -130.766373      -43.898010
 H         -50.141365     -128.565918      -45.707912
 C         -48.134884     -130.990631      -42.868919
 C         -48.361580     -132.303757      -42.219196
 C         -47.914360     -129.749268      -42.168144
 C         -47.219543     -132.512756      -41.290390
 C         -46.834644     -130.007919      -41.125233
 C         -47.041138     -131.273209      -40.321274
 H         -48.303993     -133.146927      -43.029594
 H         -49.347729     -132.294647      -41.866661
 H         -47.501339     -129.066284      -42.911373
 H         -48.965481     -129.339783      -41.737953
 H         -46.275764     -132.761215      -41.791328
 H         -47.390224     -133.480942      -40.858105
 H         -46.700211     -129.101883      -40.401966
 H         -45.852905     -130.124405      -41.624954
 H         -46.182446     -131.593567      -39.699032
 H         -48.001877     -131.219620      -39.744175
