20
 generated by VMD
 C         -59.959946     -157.578049      -56.061523
 N         -60.282978     -157.562103      -57.164165
 H         -60.030838     -157.420425      -52.246822
 H         -59.627548     -157.472656      -55.016964
 C         -59.191616     -157.950745      -52.688545
 C         -57.908104     -157.530518      -52.185978
 C         -59.472576     -159.406052      -52.933853
 C         -57.581451     -158.431198      -50.901142
 C         -59.075539     -160.303085      -51.815868
 C         -57.743542     -159.857010      -51.215618
 H         -57.806915     -156.484497      -51.751766
 H         -57.148098     -157.701050      -52.929966
 H         -60.468246     -159.693268      -53.257980
 H         -58.789825     -159.555176      -53.866142
 H         -58.188183     -158.259583      -50.035572
 H         -56.497879     -158.351242      -50.608795
 H         -58.907696     -161.362823      -52.243530
 H         -59.918663     -160.352951      -51.106899
 H         -57.523163     -160.504868      -50.422588
 H         -56.937752     -160.024612      -52.104656
