20
 generated by VMD
 C         -60.191341     -169.718475      -55.335667
 N         -59.481937     -168.823257      -55.191647
 H         -63.552265     -170.498718      -56.886723
 H         -60.957226     -170.462158      -55.481243
 C         -63.315060     -169.485855      -56.933235
 C         -62.698002     -169.006821      -58.147015
 C         -63.668877     -168.493561      -55.843281
 C         -63.382446     -167.702454      -58.748905
 C         -64.320374     -167.242569      -56.402950
 C         -63.438396     -166.717285      -57.548370
 H         -62.814468     -169.785263      -58.938595
 H         -61.541275     -168.924026      -58.068027
 H         -64.398140     -169.018738      -55.152992
 H         -62.794781     -168.187302      -55.216446
 H         -64.393532     -167.886169      -59.096371
 H         -62.658157     -167.557816      -59.536480
 H         -64.449219     -166.511566      -55.630688
 H         -65.327896     -167.425644      -56.782005
 H         -63.793884     -165.764191      -57.962467
 H         -62.355644     -166.669861      -57.134438
