20
 generated by VMD
 C         -78.728737     -204.220413      -70.470291
 N         -79.896820     -204.532349      -70.434090
 H         -76.606140     -203.518677      -68.559166
 H         -77.682236     -204.055740      -70.450211
 C         -75.742142     -203.134659      -69.189034
 C         -75.760857     -201.751846      -69.664406
 C         -74.479141     -203.873322      -68.862930
 C         -74.615936     -201.663971      -70.785774
 C         -73.247398     -202.934998      -69.099586
 C         -73.184067     -202.025070      -70.374031
 H         -75.552155     -201.016876      -68.852516
 H         -76.694901     -201.371231      -70.083199
 H         -74.460251     -204.105484      -67.765808
 H         -74.294212     -204.791489      -69.543106
 H         -74.601089     -200.735474      -71.455620
 H         -74.876961     -202.499817      -71.479210
 H         -72.439514     -203.584259      -69.147377
 H         -73.200600     -202.307159      -68.177101
 H         -72.804329     -201.066071      -70.097488
 H         -72.659554     -202.499451      -71.185127
