20
 generated by VMD
 C          -1.515819      -10.585820        0.886136
 N          -0.794484      -10.893364        1.639501
 H          -3.856642      -12.932921        0.185065
 H          -5.069832      -12.571095        1.395520
 C          -4.479633      -13.362281        0.965669
 C          -3.655041      -13.936954        2.083980
 C          -5.438544      -14.407649        0.411063
 C          -4.486217      -14.452391        3.187769
 C          -6.356699      -15.125927        1.451494
 C          -5.468077      -15.579781        2.665023
 H          -2.881564      -13.301166        2.452701
 H          -3.188687      -14.854105        1.657025
 H          -6.059461      -13.982280       -0.450729
 H          -4.736103      -15.225846       -0.034205
 H          -5.137241      -13.725245        3.700765
 H          -3.888283      -15.003035        3.880594
 H          -6.798705      -16.002081        1.013951
 H          -7.098584      -14.453956        1.872971
 H          -6.080028      -15.837040        3.582684
 H          -4.824498      -16.464211        2.445024
