20
 generated by VMD
 C         -28.260229      -81.285088      -27.621056
 N         -29.364756      -81.047920      -27.451027
 H         -29.463421      -82.662697      -24.563442
 H         -27.157751      -81.466309      -27.760761
 C         -29.987776      -83.582481      -24.347233
 C         -30.064394      -83.956032      -22.871344
 C         -30.692209      -84.527718      -25.343964
 C         -31.550447      -84.243721      -22.457764
 C         -32.056736      -84.946922      -24.831179
 C         -32.165367      -85.209961      -23.369652
 H         -29.711615      -82.978104      -22.269497
 H         -29.419174      -84.801552      -22.621511
 H         -30.811455      -84.018227      -26.297081
 H         -29.996096      -85.362946      -25.536739
 H         -31.986155      -83.215668      -22.654730
 H         -31.676107      -84.662102      -21.395260
 H         -32.584675      -85.710579      -25.467182
 H         -32.682590      -83.990227      -24.978588
 H         -33.269779      -85.190956      -23.294756
 H         -31.880417      -86.278839      -23.177479
