20
 generated by VMD
 C         -41.214600     -101.394989      -32.618610
 N         -41.890949     -101.553566      -33.546040
 H         -38.585453     -103.393242      -32.495209
 H         -40.598602     -101.715652      -31.716333
 C         -37.724430     -102.863945      -32.106125
 C         -36.560883     -102.841904      -32.988659
 C         -37.506199     -103.076851      -30.523251
 C         -35.327885     -102.258598      -32.325325
 C         -36.214001     -102.466537      -30.001005
 C         -35.069698     -102.735718      -30.941862
 H         -36.719425     -102.190590      -33.868408
 H         -36.271877     -103.854767      -33.339012
 H         -38.336143     -102.721046      -29.852737
 H         -37.412514     -104.114265      -30.545326
 H         -35.442295     -101.083359      -32.367500
 H         -34.439068     -102.496040      -32.952003
 H         -35.933498     -102.894592      -29.063679
 H         -36.128990     -101.296219      -29.801294
 H         -34.117466     -102.310097      -30.504610
 H         -34.833183     -103.841644      -30.983076
