20
 generated by VMD
 C         -30.342621      -75.208321      -20.998199
 N         -31.460634      -75.315636      -20.898296
 H         -27.583807      -74.970459      -19.603313
 H         -29.336576      -75.166603      -21.583195
 C         -27.056993      -74.671509      -20.511824
 C         -26.638727      -75.832787      -21.362185
 C         -26.021656      -73.626534      -20.389206
 C         -26.061127      -75.528664      -22.648582
 C         -25.331675      -73.230827      -21.767532
 C         -24.854332      -74.475922      -22.598057
 H         -27.407042      -76.572723      -21.344904
 H         -25.774757      -76.398636      -20.842321
 H         -26.535543      -72.730850      -19.899336
 H         -25.232441      -73.880554      -19.719236
 H         -26.902039      -75.158524      -23.265188
 H         -25.750603      -76.464783      -23.148874
 H         -24.518782      -72.444725      -21.615271
 H         -25.934944      -72.637863      -22.559242
 H         -24.669458      -74.138748      -23.616560
 H         -24.035219      -75.037811      -22.196201
