20
 generated by VMD
 C         -79.403351     -206.055115      -74.686996
 N         -79.367897     -206.623474      -73.656227
 H         -78.754059     -206.435776      -70.891884
 H         -79.284332     -205.389160      -75.560081
 C         -77.688057     -206.524139      -70.564362
 C         -76.709953     -205.742279      -71.278732
 C         -77.267761     -207.736465      -69.827576
 C         -75.284927     -205.563049      -70.613068
 C         -75.906647     -207.783035      -69.205360
 C         -74.864311     -206.948318      -70.054619
 H         -77.098198     -204.628448      -71.387787
 H         -76.710335     -206.151062      -72.343483
 H         -77.975281     -207.848007      -69.040573
 H         -77.548714     -208.535233      -70.513596
 H         -75.350121     -204.826736      -69.777466
 H         -74.540527     -205.095840      -71.320602
 H         -75.494614     -208.801163      -69.158607
 H         -75.935722     -207.373917      -68.153900
 H         -73.896721     -206.655228      -69.596024
 H         -74.717781     -207.575928      -70.910698
