20
 generated by VMD
 C          -3.541306      -19.364857        2.757029
 N          -3.448456      -18.326181        3.151556
 H          -5.496704      -20.384226        0.188194
 H          -6.217411      -21.320776       -1.119419
 C          -6.150185      -20.340773       -0.665085
 C          -5.666363      -19.368494       -1.715292
 C          -7.535666      -19.814417       -0.169437
 C          -6.588488      -19.016951       -2.866217
 C          -8.502730      -19.516207       -1.375481
 C          -7.906386      -18.468475       -2.391819
 H          -4.697175      -19.791672       -2.040951
 H          -5.370646      -18.452007       -1.280617
 H          -8.002172      -20.642759        0.499610
 H          -7.364009      -18.928703        0.590672
 H          -6.725945      -19.987324       -3.381135
 H          -6.054685      -18.288553       -3.560341
 H          -9.528953      -19.159252       -1.068214
 H          -8.635673      -20.475084       -1.915067
 H          -8.597108      -18.214123       -3.172370
 H          -7.802296      -17.514021       -1.857772
