20
 generated by VMD
 C         -31.859398      -76.084099      -24.248024
 N         -31.348953      -76.504822      -25.240103
 H         -29.641668      -77.737061      -22.364145
 H         -32.389458      -75.775688      -23.412607
 C         -28.604073      -77.888176      -22.182402
 C         -27.628571      -78.200043      -23.301851
 C         -28.289217      -78.411064      -20.892084
 C         -26.200386      -77.891914      -22.800926
 C         -26.844072      -78.096863      -20.392967
 C         -25.894001      -78.542191      -21.451452
 H         -27.797670      -77.562004      -24.178345
 H         -27.762350      -79.281235      -23.497808
 H         -28.868208      -77.868713      -20.077433
 H         -28.599489      -79.404724      -20.752550
 H         -26.164505      -76.812897      -22.714607
 H         -25.448782      -78.314735      -23.507935
 H         -26.658329      -78.667664      -19.415588
 H         -26.818182      -76.917603      -20.043346
 H         -24.839617      -78.435905      -21.084663
 H         -26.047266      -79.606979      -21.586185
