20
 generated by VMD
 C         -68.538437     -188.500351      -67.206017
 N         -68.374504     -187.538391      -67.830727
 H         -68.249924     -187.066940      -63.998848
 H         -68.669998     -189.310104      -66.494591
 C         -69.184547     -187.446411      -63.551849
 C         -69.228233     -188.538757      -62.448761
 C         -70.458054     -186.594421      -63.588036
 C         -70.551788     -189.322754      -62.622093
 C         -71.633835     -187.520584      -63.793102
 C         -71.853027     -188.488831      -62.734947
 H         -69.184799     -188.207748      -61.312691
 H         -68.248955     -189.094696      -62.712837
 H         -70.602745     -186.041733      -62.648876
 H         -70.432358     -185.921753      -64.363182
 H         -70.698250     -189.986526      -61.774586
 H         -70.504990     -189.971634      -63.533398
 H         -71.518135     -188.124573      -64.765388
 H         -72.508621     -186.821976      -63.808884
 H         -71.837105     -188.046417      -61.804131
 H         -72.616920     -189.298904      -63.001183
