20
 generated by VMD
 C         -55.619225     -148.960999      -45.476154
 N         -55.023285     -149.445541      -44.633186
 H         -54.084248     -148.014923      -48.079983
 H         -56.262093     -148.465027      -46.148453
 C         -54.283657     -147.292343      -48.848721
 C         -53.209114     -147.170166      -49.972923
 C         -54.926979     -146.006134      -48.634689
 C         -53.409855     -146.176437      -51.078617
 C         -55.185844     -145.083359      -49.789803
 C         -53.914879     -144.933746      -50.499100
 H         -53.156380     -148.107544      -50.563705
 H         -52.278843     -147.064529      -49.583862
 H         -55.902962     -146.196060      -48.071457
 H         -54.257984     -145.495987      -47.922092
 H         -54.175320     -146.559937      -51.735119
 H         -52.526836     -146.043350      -51.705036
 H         -55.356705     -144.154938      -49.359886
 H         -56.125584     -145.251160      -50.415051
 H         -54.177971     -144.164185      -51.237976
 H         -53.213150     -144.282394      -49.930836
