20
 generated by VMD
 C         -59.361576     -168.501480      -55.661991
 N         -58.852268     -168.824509      -54.718258
 H         -62.563366     -169.650848      -55.910713
 H         -59.941338     -168.251205      -56.524475
 C         -62.702892     -168.636856      -56.384628
 C         -62.743301     -168.509995      -57.874340
 C         -62.994141     -167.354630      -55.548111
 C         -63.880772     -167.573334      -58.387783
 C         -64.123268     -166.570618      -56.125633
 C         -63.911957     -166.374115      -57.570690
 H         -62.799591     -169.554703      -58.477047
 H         -61.856728     -168.130676      -58.196373
 H         -63.255043     -167.736557      -54.560448
 H         -62.005791     -166.915314      -55.528141
 H         -64.899696     -168.000381      -58.298824
 H         -63.824009     -167.286530      -59.442036
 H         -64.254616     -165.558563      -55.751778
 H         -65.063484     -166.950073      -55.756672
 H         -64.606422     -165.530777      -57.842628
 H         -62.861889     -165.914932      -57.650562
