20
 generated by VMD
 C         -79.963036     -205.407608      -71.384674
 N         -80.153984     -206.591690      -71.508026
 H         -77.256989     -202.932678      -70.500938
 H         -79.885902     -204.379181      -71.241745
 C         -76.328392     -203.363205      -70.252686
 C         -75.142403     -202.421265      -70.428986
 C         -76.007278     -204.792191      -70.158569
 C         -73.788506     -203.097748      -70.548882
 C         -74.796013     -205.020737      -69.213074
 C         -73.520638     -204.142181      -69.446198
 H         -75.067848     -201.659119      -69.610352
 H         -75.198341     -201.810730      -71.300407
 H         -76.839638     -205.310089      -69.664642
 H         -75.965500     -205.235458      -71.181107
 H         -73.021210     -202.288651      -70.736992
 H         -73.935799     -203.602264      -71.578117
 H         -74.472572     -206.069687      -69.261971
 H         -75.155869     -204.886765      -68.148399
 H         -73.072289     -203.603622      -68.541985
 H         -72.727150     -204.846313      -69.900978
