20
 generated by VMD
 C         -19.807043      -62.089069      -17.727444
 N         -19.883631      -61.889874      -16.565744
 H         -22.006849      -64.568779      -16.681490
 H         -19.510931      -62.029499      -18.759819
 C         -23.019854      -64.818161      -16.994862
 C         -23.410736      -64.316101      -18.302622
 C         -24.079411      -65.321007      -16.072968
 C         -24.554127      -64.987106      -19.063662
 C         -25.250704      -65.923744      -16.867821
 C         -25.659168      -65.086021      -18.091509
 H         -22.513922      -64.289574      -19.048058
 H         -23.774841      -63.204697      -18.066166
 H         -23.690533      -65.987091      -15.334737
 H         -24.353552      -64.356339      -15.648155
 H         -24.191330      -65.982117      -19.379782
 H         -24.804052      -64.493004      -20.065662
 H         -26.046984      -65.877136      -16.167372
 H         -25.052279      -66.954727      -17.193144
 H         -26.426338      -65.653885      -18.592863
 H         -26.125826      -64.093117      -17.977295
