20
 generated by VMD
 C         -21.141991      -52.250824       -9.657518
 N         -21.363535      -52.579922      -10.751464
 H         -19.515308      -50.104904      -12.219995
 H         -20.684996      -51.730816       -8.713969
 C         -18.400665      -50.266270      -12.338953
 C         -17.917770      -51.602081      -12.811390
 C         -17.486776      -49.027458      -12.383635
 C         -16.954538      -51.361835      -13.949532
 C         -16.293400      -49.024048      -13.326179
 C         -15.758391      -50.420334      -13.634322
 H         -18.734789      -52.220802      -13.174080
 H         -17.374029      -52.016602      -11.902473
 H         -18.110039      -48.116383      -12.560027
 H         -17.163147      -48.895340      -11.355499
 H         -17.494589      -50.970352      -14.835407
 H         -16.617702      -52.358238      -14.304573
 H         -15.425315      -48.541195      -12.711716
 H         -16.440363      -48.380852      -14.182008
 H         -15.022630      -50.352680      -14.399715
 H         -15.344583      -50.755482      -12.722034
