20
 generated by VMD
 C         -40.497082     -100.248428      -30.300585
 N         -41.381958     -100.507729      -29.614334
 H         -37.273216     -101.140778      -30.645100
 H         -39.711052      -99.712997      -30.933092
 C         -36.406967     -100.547379      -30.876972
 C         -36.257957     -100.083549      -32.378670
 C         -35.354877     -100.241348      -29.718164
 C         -35.265800      -98.858566      -32.515301
 C         -34.325150      -99.162949      -30.029154
 C         -34.088135      -98.902626      -31.523857
 H         -37.188942      -99.742737      -32.784451
 H         -35.946999     -100.892540      -33.071091
 H         -35.823109     -100.080002      -28.778599
 H         -34.684952     -101.136673      -29.549784
 H         -35.823624      -97.875641      -32.239296
 H         -34.946114      -98.782661      -33.565960
 H         -33.414635      -99.212761      -29.403345
 H         -34.806469      -98.205399      -29.561480
 H         -33.424541      -98.017128      -31.469402
 H         -33.350151      -99.602722      -31.881044
