20
 generated by VMD
 C         -11.027293      -34.062145       -9.286410
 N         -11.349027      -33.469452       -8.381067
 H         -11.546507      -37.724442       -8.005734
 H         -12.141212      -36.838005       -6.693570
 C         -12.319177      -37.739410       -7.252897
 C         -12.285401      -39.078537       -6.537535
 C         -13.681734      -37.552147       -8.030111
 C         -13.488730      -39.163200       -5.588799
 C         -14.764059      -37.543842       -6.972491
 C         -14.854541      -38.847561       -6.246481
 H         -11.371734      -39.356701       -5.996504
 H         -12.349435      -39.891190       -7.306983
 H         -13.598486      -36.697197       -8.611197
 H         -13.830264      -38.377331       -8.757337
 H         -13.347918      -38.413609       -4.825149
 H         -13.437857      -40.117882       -5.010096
 H         -15.685890      -37.275135       -7.382370
 H         -14.459178      -36.779095       -6.189381
 H         -15.649635      -38.858597       -5.493254
 H         -15.130069      -39.586525       -7.003216
