20
 generated by VMD
 C         -23.873968      -69.550758      -16.900459
 N         -24.213633      -69.930878      -15.846164
 H         -23.826777      -67.022156      -19.051373
 H         -23.399952      -69.183632      -17.860136
 C         -24.517365      -67.716919      -19.413015
 C         -23.779484      -68.397141      -20.534431
 C         -25.983938      -67.526802      -19.294455
 C         -24.542309      -69.686859      -20.810635
 C         -26.680008      -68.768890      -19.616800
 C         -26.020502      -69.348183      -20.919285
 H         -22.809969      -68.752533      -20.163868
 H         -23.631300      -67.807571      -21.332228
 H         -26.147562      -67.348351      -18.222137
 H         -26.179712      -66.550743      -19.939705
 H         -24.461380      -70.418907      -20.019283
 H         -24.264700      -70.170822      -21.724930
 H         -27.738390      -68.542732      -19.646662
 H         -26.545818      -69.394150      -18.727045
 H         -26.577549      -70.244751      -21.149254
 H         -26.157888      -68.582352      -21.700788
