20
 generated by VMD
 C         -19.703953      -60.749165      -17.165735
 N         -19.404261      -60.697803      -16.031982
 H         -22.659395      -61.414230      -17.982634
 H         -20.199354      -60.656933      -18.229170
 C         -23.136433      -62.354347      -17.587366
 C         -23.985870      -63.183281      -18.528713
 C         -23.037468      -62.737740      -16.139582
 C         -24.427397      -64.619339      -17.978416
 C         -23.291710      -64.199776      -15.702450
 C         -24.518480      -64.714859      -16.460421
 H         -23.403519      -63.356358      -19.418442
 H         -24.796173      -62.716206      -19.000919
 H         -22.053459      -62.348652      -15.834961
 H         -23.688263      -62.137428      -15.541512
 H         -23.740368      -65.389496      -18.341619
 H         -25.406242      -64.819855      -18.472795
 H         -23.495216      -64.278419      -14.648291
 H         -22.404207      -64.831635      -15.816965
 H         -24.623550      -65.817528      -16.279629
 H         -25.445391      -64.218315      -16.124453
