20
 generated by VMD
 C         -29.524260      -74.703995      -19.744974
 N         -30.562443      -74.498444      -20.210558
 H         -25.836470      -73.625374      -18.732941
 H         -28.638157      -74.846375      -19.159525
 C         -25.728319      -73.444214      -19.796999
 C         -25.353363      -74.660873      -20.705366
 C         -25.395691      -72.147453      -20.484129
 C         -25.951509      -74.545189      -22.099802
 C         -26.041166      -72.040726      -21.932184
 C         -25.767628      -73.204437      -22.877293
 H         -25.671249      -75.546013      -20.217039
 H         -24.303520      -74.826874      -20.750143
 H         -25.767231      -71.163116      -20.024885
 H         -24.324368      -71.987457      -20.503603
 H         -27.025391      -74.741608      -22.028143
 H         -25.640079      -75.349236      -22.766075
 H         -25.626865      -71.034439      -22.299547
 H         -27.166300      -71.780861      -21.817545
 H         -26.618401      -73.136612      -23.625191
 H         -24.900597      -73.228287      -23.490580
