20
 generated by VMD
 C         -35.171982      -97.814217      -25.825930
 N         -35.996742      -97.497238      -26.553917
 H         -35.661827      -95.204941      -27.897701
 H         -34.210075      -98.112129      -25.260132
 C         -35.296551      -94.963364      -28.871090
 C         -35.862324      -95.651840      -30.012608
 C         -34.063141      -94.108856      -28.974865
 C         -35.600605      -95.053032      -31.348469
 C         -33.834179      -93.558998      -30.410877
 C         -34.205921      -94.531807      -31.473722
 H         -36.851509      -95.878151      -29.697676
 H         -35.252491      -96.611763      -30.002886
 H         -34.094864      -93.172066      -28.450523
 H         -33.188740      -94.670166      -28.634800
 H         -36.251362      -94.213173      -31.417439
 H         -35.972485      -95.802940      -32.115253
 H         -32.770401      -93.390900      -30.405664
 H         -34.402454      -92.609268      -30.574722
 H         -33.951679      -94.189690      -32.559040
 H         -33.447025      -95.453346      -31.362906
