20
 generated by VMD
 C         -27.477217      -86.546295      -26.363428
 N         -28.502356      -86.378746      -26.907110
 H         -30.959442      -86.391212      -25.201992
 H         -26.568459      -86.706642      -25.702951
 C         -31.922482      -86.765640      -25.523655
 C         -32.801804      -87.378731      -24.530067
 C         -32.067516      -87.337784      -26.938082
 C         -34.182281      -87.420700      -25.036819
 C         -33.546768      -87.521469      -27.405727
 C         -34.412083      -88.255280      -26.341406
 H         -32.715141      -86.678596      -23.655499
 H         -32.456654      -88.389931      -24.314440
 H         -31.611509      -86.574165      -27.539555
 H         -31.482481      -88.291237      -26.975388
 H         -34.672710      -86.434265      -25.223787
 H         -34.835133      -87.874565      -24.163601
 H         -33.547462      -88.013382      -28.388853
 H         -34.035851      -86.586357      -27.642614
 H         -35.475239      -88.207970      -26.551781
 H         -34.128513      -89.183014      -25.950485
