20
 generated by VMD
 C         -49.127758     -140.856735      -45.422318
 N         -48.016624     -141.171631      -45.191402
 H         -51.249222     -138.607956      -45.958130
 H         -50.220047     -140.708755      -45.597382
 C         -52.012421     -139.375244      -46.282066
 C         -52.718304     -139.324768      -47.685295
 C         -52.831158     -139.878555      -45.056839
 C         -53.296146     -140.706070      -47.875469
 C         -53.549099     -141.179520      -45.465000
 C         -54.318546     -141.106766      -46.795097
 H         -52.044067     -139.218384      -48.510437
 H         -53.522175     -138.524673      -47.793598
 H         -52.137886     -140.050262      -44.176399
 H         -53.446583     -138.998184      -44.860672
 H         -52.495712     -141.390442      -47.916523
 H         -53.782177     -140.814957      -48.811466
 H         -54.208858     -141.383652      -44.547512
 H         -52.713829     -141.971451      -45.658157
 H         -54.788689     -142.035477      -47.197659
 H         -55.136314     -140.304810      -46.740883
