20
 generated by VMD
 C         -68.132538     -188.214447      -66.588745
 N         -68.824303     -188.627853      -67.410393
 H         -68.324112     -187.191391      -63.573746
 H         -67.460411     -188.000992      -65.821541
 C         -69.321762     -187.612671      -63.603298
 C         -69.363960     -188.952972      -63.064190
 C         -70.434669     -186.615128      -63.452866
 C         -70.736397     -189.699203      -63.409573
 C         -71.765778     -187.300156      -63.754234
 C         -71.912102     -188.664169      -63.101055
 H         -69.154053     -189.082916      -61.918030
 H         -68.458168     -189.482071      -63.628395
 H         -70.457756     -186.263382      -62.420380
 H         -70.261589     -185.863235      -64.176834
 H         -70.836113     -190.671738      -62.960266
 H         -70.745453     -189.913910      -64.530655
 H         -71.890350     -187.480515      -64.859245
 H         -72.534607     -186.564667      -63.520546
 H         -71.910004     -188.486679      -62.016132
 H         -72.964523     -189.293335      -63.150253
