20
 generated by VMD
 C         -40.092621     -100.712814      -31.829819
 N         -40.941422     -100.378204      -31.081289
 H         -37.847660     -103.330200      -31.887167
 H         -39.127525     -100.943947      -32.377125
 C         -36.820370     -102.854263      -31.750505
 C         -35.950066     -102.283150      -32.827759
 C         -36.757736     -102.307838      -30.376806
 C         -35.483181     -100.917435      -32.468502
 C         -36.708851     -100.836952      -30.319466
 C         -35.431103     -100.590149      -31.071606
 H         -36.376366     -102.417595      -33.820137
 H         -35.011356     -102.930099      -32.851917
 H         -37.713284     -102.654785      -29.863670
 H         -35.974754     -102.780029      -29.824556
 H         -36.058132     -100.247574      -33.215042
 H         -34.437336     -100.914261      -32.901585
 H         -36.679394     -100.565041      -29.331673
 H         -37.602795     -100.335159      -30.741159
 H         -35.225857      -99.502541      -30.973545
 H         -34.523228     -100.998611      -30.522236
