20
 generated by VMD
 C         -49.433434     -127.485878      -39.436615
 N         -50.449623     -127.401070      -39.960396
 H         -47.100357     -127.145409      -42.540051
 H         -48.434093     -127.599762      -39.004265
 C         -46.312027     -126.626556      -42.055817
 C         -45.568092     -127.080391      -40.843742
 C         -46.549072     -125.049095      -42.019306
 C         -44.416046     -126.178360      -40.388245
 C         -45.335457     -124.220398      -41.577404
 C         -44.866581     -124.777504      -40.238609
 H         -45.281803     -128.184570      -41.022530
 H         -46.300720     -127.169815      -40.094482
 H         -46.906780     -124.694969      -42.973293
 H         -47.573215     -124.796120      -41.506668
 H         -43.538227     -126.344460      -41.016464
 H         -44.017479     -126.490685      -39.404266
 H         -45.599182     -123.167847      -41.270481
 H         -44.556572     -124.208351      -42.368008
 H         -44.011032     -124.242760      -39.794315
 H         -45.668037     -124.667274      -39.462166
