20
 generated by VMD
 C         -21.364109      -65.388794      -17.161524
 N         -20.757154      -65.829185      -16.287390
 H         -24.651056      -63.551712      -18.094223
 H         -22.194010      -65.361427      -17.936213
 C         -24.615274      -64.680145      -18.275585
 C         -24.467424      -65.101509      -19.713930
 C         -25.102379      -65.483788      -17.080080
 C         -24.301252      -66.590736      -19.885038
 C         -24.923803      -67.054268      -17.380444
 C         -25.152739      -67.421265      -18.863632
 H         -23.591457      -64.472954      -20.188713
 H         -25.345631      -64.723305      -20.161268
 H         -24.707390      -65.132904      -16.226675
 H         -26.158674      -65.313904      -16.972212
 H         -23.197159      -66.882820      -19.678587
 H         -24.526442      -67.005577      -20.891386
 H         -25.528551      -67.625481      -16.607170
 H         -23.858917      -67.371376      -17.247433
 H         -24.968710      -68.528168      -19.119549
 H         -26.178314      -67.149017      -19.116388
