20
 generated by VMD
 C         -21.721991      -55.774620      -17.687674
 N         -20.699318      -55.424667      -18.008961
 H         -23.139359      -58.359787      -15.095802
 H         -22.493364      -55.797546      -17.105129
 C         -22.214378      -58.960144      -14.911815
 C         -21.487623      -58.923153      -13.582339
 C         -21.645391      -59.692810      -16.003580
 C         -21.029234      -60.242348      -13.155916
 C         -20.318857      -60.319016      -15.655954
 C         -20.211937      -60.904881      -14.299959
 H         -22.242094      -58.558830      -12.922289
 H         -20.597267      -58.241592      -13.586329
 H         -22.346109      -60.487419      -16.344059
 H         -21.612566      -59.098137      -16.949980
 H         -21.898775      -60.846294      -12.934739
 H         -20.425571      -60.140778      -12.236213
 H         -19.539755      -59.556389      -15.715530
 H         -19.950560      -60.924042      -16.490633
 H         -20.666042      -61.883976      -14.494377
 H         -19.097504      -61.065025      -14.043389
