20
 generated by VMD
 C         -30.771664      -75.035973      -22.711988
 N         -31.264643      -75.491844      -21.728533
 H         -28.831146      -77.259842      -21.868515
 H         -30.179016      -75.159172      -23.584856
 C         -27.795321      -77.034309      -21.569029
 C         -26.644489      -77.833069      -22.173548
 C         -27.480530      -75.908127      -20.614128
 C         -25.859024      -76.882118      -22.957325
 C         -26.580288      -74.883408      -21.433901
 C         -25.425640      -75.593521      -22.182726
 H         -27.021984      -78.669754      -22.706690
 H         -25.952202      -78.134705      -21.373844
 H         -28.450239      -75.466408      -20.186363
 H         -26.893280      -76.403496      -19.751005
 H         -26.358374      -76.604652      -23.851851
 H         -25.000494      -77.438652      -23.321730
 H         -26.105061      -74.255440      -20.653479
 H         -27.184158      -74.367317      -22.114086
 H         -24.764116      -74.889236      -22.761381
 H         -24.872253      -75.979599      -21.359131
