20
 generated by VMD
 C         -77.368515     -203.443268      -67.437767
 N         -77.988937     -204.388809      -67.092834
 H         -74.600853     -201.044617      -67.481743
 H         -76.720512     -202.556412      -67.517082
 C         -74.327576     -200.450699      -68.398964
 C         -74.956261     -199.146866      -68.756783
 C         -74.023743     -201.125320      -69.607956
 C         -73.875328     -198.262543      -69.558517
 C         -72.898811     -200.480530      -70.372467
 C         -73.295288     -199.025940      -70.667976
 H         -75.305107     -198.529312      -67.908142
 H         -75.920509     -199.349792      -69.383430
 H         -73.650528     -202.061707      -69.374641
 H         -74.831169     -201.206055      -70.321823
 H         -73.126923     -197.939697      -68.809914
 H         -74.352852     -197.339462      -69.857292
 H         -72.479050     -201.132874      -71.259438
 H         -72.022659     -200.511490      -69.579742
 H         -72.433304     -198.464890      -71.019234
 H         -74.036964     -198.905304      -71.602318
