20
 generated by VMD
 C         -69.768272     -180.374802      -61.521427
 N         -69.199036     -180.875183      -62.400948
 H         -67.046524     -180.005081      -59.247845
 H         -70.324806     -179.949982      -60.700089
 C         -66.292786     -179.310013      -59.711258
 C         -65.400475     -179.532684      -60.905125
 C         -65.890274     -178.142685      -58.855709
 C         -65.288322     -178.232773      -61.790127
 C         -65.724121     -176.900726      -59.697460
 C         -64.773041     -177.105392      -60.870762
 H         -65.795517     -180.385345      -61.526329
 H         -64.360619     -179.945541      -60.690887
 H         -66.470055     -177.970398      -57.938412
 H         -64.835083     -178.389038      -58.500488
 H         -66.342644     -178.127472      -62.087631
 H         -64.519379     -178.493454      -62.523907
 H         -65.479706     -175.987274      -59.149097
 H         -66.686111     -176.717407      -60.160339
 H         -64.665428     -176.177277      -61.415955
 H         -63.668179     -177.226059      -60.519753
