20
 generated by VMD
 C         -57.024094     -163.479370      -56.658596
 N         -57.216141     -162.547165      -57.296051
 H         -59.863564     -165.416031      -54.801834
 H         -56.736423     -164.337387      -56.079983
 C         -60.756626     -164.747314      -54.685959
 C         -61.465313     -165.012375      -53.348236
 C         -61.552578     -164.533340      -55.959213
 C         -62.788288     -164.158737      -53.258530
 C         -62.860630     -163.669342      -55.664070
 C         -63.657955     -164.379990      -54.485847
 H         -60.731541     -164.644623      -52.572182
 H         -61.842892     -166.053802      -53.355541
 H         -61.039856     -164.045990      -56.853767
 H         -61.927418     -165.531357      -56.353527
 H         -62.544792     -163.146759      -53.014851
 H         -63.353310     -164.374451      -52.317085
 H         -63.495289     -163.620422      -56.530369
 H         -62.454685     -162.809662      -55.299896
 H         -64.608826     -163.879044      -54.449577
 H         -63.916653     -165.438095      -54.712708
