20
 generated by VMD
 C         -38.996712     -115.918365      -35.340611
 N         -39.393772     -115.379456      -34.424683
 H         -41.351513     -115.667053      -37.316994
 H         -38.390598     -116.411270      -36.161057
 C         -42.482487     -115.706261      -37.382710
 C         -42.991848     -115.542503      -38.767296
 C         -43.330524     -115.741669      -36.158047
 C         -44.294670     -116.331551      -38.946064
 C         -44.751743     -116.146545      -36.465816
 C         -45.289627     -115.970131      -37.860203
 H         -42.294323     -115.813133      -39.525387
 H         -43.124130     -114.492432      -38.956116
 H         -42.850872     -116.192307      -35.290089
 H         -43.199001     -114.691635      -35.852280
 H         -43.920673     -117.361351      -39.056664
 H         -44.754757     -116.093056      -39.864429
 H         -45.334839     -115.630928      -35.741467
 H         -44.916309     -117.123375      -36.174820
 H         -46.171669     -116.841408      -38.093029
 H         -45.588013     -114.982460      -38.112541
