20
 generated by VMD
 C         -20.089436      -56.092213      -16.746471
 N         -21.267118      -56.335770      -16.723736
 H         -22.423788      -59.265038      -17.295616
 H         -19.062119      -55.874081      -16.760101
 C         -22.349329      -59.959270      -16.410215
 C         -22.472212      -59.228512      -15.036819
 C         -22.003439      -61.336567      -16.468439
 C         -21.387024      -59.730530      -14.059176
 C         -20.688334      -61.580311      -15.673616
 C         -21.015259      -61.202717      -14.169660
 H         -23.430492      -59.251213      -14.564882
 H         -22.381895      -58.149303      -15.164166
 H         -22.831884      -61.978138      -16.037382
 H         -21.921835      -61.681618      -17.532625
 H         -21.882540      -59.671242      -13.054111
 H         -20.426569      -59.106216      -14.122087
 H         -19.871546      -60.958107      -16.011080
 H         -20.273502      -62.560555      -15.759405
 H         -21.812538      -61.873920      -13.813887
 H         -20.173225      -61.336113      -13.472116
