20
 generated by VMD
 C         -32.226437      -94.835579      -25.457510
 N         -33.340908      -94.967575      -25.124102
 H         -34.004593      -95.031395      -28.226171
 H         -31.151468      -94.762970      -25.885353
 C         -34.264812      -94.044876      -28.741756
 C         -35.671906      -93.542130      -28.692205
 C         -33.410851      -93.462662      -29.839375
 C         -36.007656      -92.099739      -28.968117
 C         -33.567909      -92.021500      -30.154430
 C         -35.071548      -91.741051      -30.232670
 H         -36.056293      -93.996666      -27.715586
 H         -36.235352      -94.086700      -29.401199
 H         -32.346291      -93.635735      -29.615114
 H         -33.584076      -94.138924      -30.683336
 H         -35.718555      -91.551079      -28.087126
 H         -37.097847      -91.965889      -29.035204
 H         -33.115005      -91.707451      -31.136925
 H         -33.181442      -91.379082      -29.399647
 H         -35.303455      -90.740112      -30.512384
 H         -35.492855      -92.351608      -31.082232
