20
 generated by VMD
 C         -31.279793      -75.744690      -21.554224
 N         -32.286980      -75.254433      -21.319704
 H         -27.804274      -75.199951      -19.838655
 H         -30.572681      -76.116859      -22.160597
 C         -26.832325      -75.184021      -20.419977
 C         -26.461437      -76.367813      -21.392488
 C         -25.885580      -74.027763      -20.455715
 C         -25.929300      -75.872978      -22.736176
 C         -25.317518      -73.636749      -21.750998
 C         -24.865084      -74.791344      -22.651373
 H         -27.261538      -77.049576      -21.482737
 H         -25.594738      -76.925468      -20.953899
 H         -26.512312      -73.235283      -19.953110
 H         -25.093557      -74.425926      -19.920616
 H         -26.763632      -75.480690      -23.308189
 H         -25.551409      -76.704147      -23.296888
 H         -24.561298      -72.802399      -21.622007
 H         -26.115280      -73.020958      -22.258518
 H         -24.568502      -74.346344      -23.587702
 H         -23.920034      -75.173981      -22.239954
