20
 generated by VMD
 C         -19.944845      -57.414375      -16.879942
 N         -19.198404      -57.804943      -17.631153
 H         -22.690510      -59.349934      -16.879471
 H         -20.456190      -57.125870      -15.933922
 C         -22.613447      -60.407097      -16.532881
 C         -23.857159      -61.167576      -16.398975
 C         -21.347036      -60.849926      -15.874515
 C         -23.852995      -62.538403      -15.671127
 C         -21.291929      -62.268253      -15.240797
 C         -22.678844      -62.729134      -14.766846
 H         -24.169788      -61.392487      -17.445101
 H         -24.677938      -60.472569      -16.109034
 H         -20.517090      -60.755619      -16.624472
 H         -21.007784      -60.210815      -15.065956
 H         -23.853321      -63.333118      -16.448959
 H         -24.824663      -62.764767      -15.119561
 H         -20.770517      -62.129635      -14.239759
 H         -20.747862      -62.944191      -15.882595
 H         -22.499668      -63.764542      -14.345852
 H         -22.917706      -62.126606      -13.864995
