20
 generated by VMD
 C          -5.094098      -21.064030        1.701972
 N          -5.380792      -20.498491        2.618146
 H          -5.114439      -18.550495       -0.631325
 H          -5.480708      -20.191143       -0.120501
 C          -5.741955      -19.393974       -0.904705
 C          -5.521165      -20.077223       -2.256477
 C          -7.199013      -18.942293       -0.616421
 C          -6.698045      -21.003372       -2.651706
 C          -8.330732      -19.806942       -1.205228
 C          -8.027203      -20.212852       -2.583822
 H          -4.553246      -20.613993       -2.182793
 H          -5.449878      -19.330584       -2.975197
 H          -7.499371      -18.707628        0.470167
 H          -7.401832      -17.955742       -1.076031
 H          -6.845227      -21.859455       -2.002335
 H          -6.476733      -21.386087       -3.658513
 H          -9.304533      -19.298201       -1.136052
 H          -8.429465      -20.645914       -0.547850
 H          -8.797811      -20.809752       -3.023574
 H          -7.950837      -19.300692       -3.140405
