20
 generated by VMD
 C         -47.135826     -137.755051      -46.251431
 N         -47.200989     -137.013840      -47.092079
 H         -50.626328     -136.408859      -44.837982
 H         -47.045322     -138.365707      -45.340855
 C         -51.300026     -137.269302      -44.767262
 C         -51.392025     -138.042938      -45.964314
 C         -52.571823     -137.143417      -43.849621
 C         -52.142040     -139.381729      -45.847645
 C         -53.365025     -138.515503      -43.780190
 C         -53.530384     -139.226913      -45.156345
 H         -50.412701     -138.326462      -46.214859
 H         -51.940662     -137.354279      -46.741665
 H         -52.198929     -136.778793      -42.879951
 H         -53.239994     -136.390564      -44.330463
 H         -51.551983     -139.923187      -45.118183
 H         -52.129261     -139.918991      -46.804192
 H         -54.345398     -138.465912      -43.226299
 H         -52.812546     -139.259583      -43.167274
 H         -54.016804     -140.167908      -44.911873
 H         -54.278381     -138.550095      -45.764790
