20
 generated by VMD
 C         -11.868490      -26.364414       -0.211028
 N         -12.781139      -26.295151       -0.851511
 H         -10.199153      -26.391266       -3.700162
 H          -9.317424      -25.792465       -5.032361
 C          -9.174961      -26.150801       -4.016837
 C          -8.281842      -27.379303       -4.155873
 C          -8.542708      -25.083649       -3.103881
 C          -6.863967      -26.920135       -4.627224
 C          -7.091442      -24.731548       -3.362635
 C          -6.194836      -25.960613       -3.645691
 H          -8.633211      -28.072929       -4.830652
 H          -8.139229      -27.861931       -3.172885
 H          -9.227305      -24.240444       -3.036261
 H          -8.593442      -25.519989       -2.068744
 H          -6.976620      -26.455513       -5.581970
 H          -6.298889      -27.828779       -4.671503
 H          -6.718362      -24.142338       -2.502240
 H          -7.028502      -24.166954       -4.268769
 H          -5.227515      -25.575161       -3.981576
 H          -6.143748      -26.411718       -2.634659
