20
 generated by VMD
 C         -44.456650     -122.199287      -36.034615
 N         -43.958927     -121.165184      -35.868439
 H         -44.933376     -122.688538      -39.367306
 H         -45.135197     -123.042702      -36.059696
 C         -44.893017     -121.651611      -39.607536
 C         -43.471603     -121.195091      -39.403347
 C         -45.941330     -120.696701      -39.155567
 C         -43.291000     -119.809845      -40.110924
 C         -45.743713     -119.347198      -39.903053
 C         -44.334541     -118.729759      -39.649143
 H         -42.762104     -121.974297      -39.956448
 H         -43.206535     -121.187485      -38.335033
 H         -46.947430     -120.885696      -39.463337
 H         -45.860409     -120.598213      -38.088165
 H         -43.399746     -119.938850      -41.206219
 H         -42.303684     -119.498688      -39.692657
 H         -46.292297     -118.600632      -39.460056
 H         -45.848808     -119.535858      -41.003693
 H         -44.220413     -117.797913      -40.243565
 H         -44.228546     -118.468025      -38.566849
