20
 generated by VMD
 C         -49.891209     -127.693871      -39.156460
 N         -49.331928     -126.688446      -38.985359
 H         -47.275623     -126.123070      -40.710850
 H         -50.599442     -128.486435      -39.204662
 C         -46.324947     -125.459862      -40.895420
 C         -44.944527     -126.008598      -40.525333
 C         -46.547062     -123.966003      -41.251987
 C         -43.728806     -125.051819      -40.811493
 C         -45.250626     -123.114487      -41.488548
 C         -44.187824     -123.609070      -40.594734
 H         -44.778984     -127.017891      -41.054573
 H         -45.109688     -126.247314      -39.412228
 H         -47.135406     -123.776825      -42.097004
 H         -46.990494     -123.649689      -40.209869
 H         -43.234989     -125.196663      -41.798935
 H         -42.904606     -125.120850      -40.054585
 H         -45.524048     -122.029892      -41.209473
 H         -44.797405     -123.127754      -42.492962
 H         -43.357441     -122.916519      -40.688320
 H         -44.508480     -123.518700      -39.545414
