20
 generated by VMD
 C         -15.883288      -47.655296       -6.684072
 N         -15.848051      -46.557735       -6.449852
 H         -16.686796      -47.780659      -10.109447
 H         -15.336011      -47.462784      -11.319369
 C         -16.397930      -47.182774      -10.994562
 C         -16.370064      -45.708729      -10.560304
 C         -17.313139      -47.577312      -12.212720
 C         -16.085203      -44.889038      -11.839121
 C         -16.906755      -46.753063      -13.387584
 C         -16.954308      -45.263680      -13.033813
 H         -15.546976      -45.574116       -9.857656
 H         -17.237310      -45.410255       -9.973291
 H         -17.190216      -48.626110      -12.431814
 H         -18.385723      -47.450951      -11.955014
 H         -15.043778      -45.101593      -12.167011
 H         -16.060034      -43.805229      -11.666357
 H         -17.566229      -46.982403      -14.163876
 H         -15.880186      -46.890675      -13.792774
 H         -16.735130      -44.613926      -13.888517
 H         -18.018213      -45.008018      -12.855204
