20
 generated by VMD
 C         -50.418476     -129.375366      -43.587479
 N         -50.861012     -129.954803      -44.460674
 H         -49.139091     -128.048889      -41.084103
 H         -49.808350     -128.795959      -42.956104
 C         -48.042774     -128.250122      -41.132839
 C         -47.746681     -129.737381      -41.041904
 C         -47.058598     -127.247688      -40.884460
 C         -46.444565     -130.077545      -41.644997
 C         -45.661190     -127.623970      -41.292500
 C         -45.392941     -129.123276      -41.101837
 H         -48.552921     -130.317932      -41.374325
 H         -47.607582     -130.118790      -39.968128
 H         -47.216637     -126.396523      -41.665310
 H         -47.018250     -126.908188      -39.911777
 H         -46.574718     -130.103256      -42.724342
 H         -46.088451     -131.097427      -41.474689
 H         -44.799812     -127.171600      -40.737232
 H         -45.403271     -127.321487      -42.408661
 H         -44.454655     -129.467499      -41.619549
 H         -45.213966     -129.314468      -40.047794
