20
 generated by VMD
 C         -78.819542     -204.192871      -70.364746
 N         -79.841278     -204.617142      -70.518059
 H         -76.498772     -203.522217      -68.491875
 H         -77.812195     -203.711731      -70.492043
 C         -75.743912     -203.204544      -69.225929
 C         -75.781471     -201.893982      -69.860275
 C         -74.474182     -203.906509      -68.976021
 C         -74.559914     -201.588943      -70.816727
 C         -73.276947     -202.956390      -68.926071
 C         -73.321098     -202.234360      -70.331657
 H         -75.718628     -201.128342      -69.004944
 H         -76.660690     -201.543793      -70.348679
 H         -74.532326     -204.418625      -67.949165
 H         -74.222717     -204.626251      -69.844910
 H         -74.337112     -200.477478      -70.776321
 H         -74.744362     -201.796371      -71.887291
 H         -72.436928     -203.556580      -68.778824
 H         -73.444939     -202.270020      -68.076385
 H         -72.587128     -201.366409      -70.372498
 H         -73.133347     -203.042084      -71.036591
