20
 generated by VMD
 C          -9.239915      -24.098974        1.876792
 N          -9.181158      -25.155760        2.253927
 H          -7.691572      -23.267065       -0.799599
 H          -8.841974      -22.643871       -1.952710
 C          -7.778254      -23.007984       -1.882536
 C          -7.550413      -24.180958       -2.772371
 C          -6.857287      -21.858160       -2.186950
 C          -7.683737      -23.828297       -4.229321
 C          -6.983313      -21.465584       -3.712155
 C          -6.747453      -22.724463       -4.594613
 H          -8.185795      -25.081161       -2.645789
 H          -6.562443      -24.583996       -2.603064
 H          -7.097951      -21.022787       -1.481441
 H          -5.857081      -22.261446       -2.040404
 H          -8.750479      -23.604521       -4.413306
 H          -7.425415      -24.649427       -4.882838
 H          -6.215677      -20.692989       -3.939085
 H          -7.973842      -21.107756       -4.028170
 H          -6.976780      -22.402206       -5.614120
 H          -5.771980      -23.111206       -4.454191
