20
 generated by VMD
 C         -68.860123     -186.618393      -67.828781
 N         -68.066246     -187.416672      -67.523636
 H         -68.302132     -187.432022      -64.373787
 H         -69.585442     -185.912521      -68.141037
 C         -69.152420     -187.451019      -63.652020
 C         -68.896889     -187.594086      -62.155266
 C         -70.446861     -187.223389      -64.228638
 C         -70.074913     -188.435455      -61.581421
 C         -71.562210     -188.035629      -63.516544
 C         -71.478180     -187.849503      -62.002640
 H         -68.895340     -186.592911      -61.666828
 H         -67.943214     -188.122833      -62.129513
 H         -70.718834     -186.141541      -64.057594
 H         -70.443169     -187.581970      -65.299110
 H         -69.939781     -188.429581      -60.442825
 H         -70.097603     -189.488525      -61.842617
 H         -71.350021     -189.124908      -63.638550
 H         -72.512474     -187.707306      -63.993420
 H         -71.508942     -186.834976      -61.605888
 H         -72.339302     -188.495544      -61.628391
