20
 generated by VMD
 C         -11.557935      -41.990902       -6.473037
 N         -11.127656      -41.067112       -6.906621
 H         -14.592629      -40.890472       -8.478230
 H         -15.623535      -40.323502       -9.778745
 C         -15.224719      -41.224873       -9.247050
 C         -16.447050      -41.827656       -8.518182
 C         -14.424470      -42.211147      -10.131621
 C         -17.422527      -42.432476       -9.562885
 C         -15.416521      -42.861835      -11.123322
 C         -16.726814      -43.437195      -10.469660
 H         -16.992680      -41.120159       -7.829325
 H         -16.132730      -42.657166       -7.820080
 H         -13.610996      -41.653809      -10.640980
 H         -13.868956      -42.869667       -9.394110
 H         -17.906874      -41.642517      -10.116671
 H         -18.273928      -42.970650       -9.096919
 H         -14.868333      -43.714264      -11.648993
 H         -15.722666      -42.126732      -11.811814
 H         -17.433800      -43.674458      -11.269617
 H         -16.466417      -44.313286       -9.890652
