20
 generated by VMD
 C         -64.986488     -175.594467      -55.807957
 N         -64.449974     -176.536942      -56.262775
 H         -64.078644     -174.275803      -58.259930
 H         -65.374107     -174.653458      -55.419811
 C         -64.621071     -173.559830      -58.976910
 C         -65.377892     -172.337418      -58.441193
 C         -64.042381     -173.310974      -60.371971
 C         -64.556740     -171.048462      -58.447788
 C         -63.147701     -172.029312      -60.315018
 C         -63.848305     -170.785553      -59.778801
 H         -65.772766     -172.513245      -57.479115
 H         -66.295715     -172.315155      -59.205776
 H         -63.401512     -174.289490      -60.603935
 H         -64.788002     -173.313843      -61.198689
 H         -63.815060     -171.059738      -57.657524
 H         -65.205490     -170.232819      -58.188072
 H         -62.657745     -171.974152      -61.301048
 H         -62.329006     -172.150589      -59.577499
 H         -63.092388     -169.999817      -59.691540
 H         -64.519356     -170.359207      -60.506859
