20
 generated by VMD
 C         -58.981754     -158.887573      -57.311836
 N         -58.868141     -158.129944      -58.256817
 H         -59.674881     -159.331757      -54.294521
 H         -59.108948     -159.546494      -56.438133
 C         -59.625137     -160.205002      -53.646938
 C         -58.472107     -160.258942      -52.584854
 C         -60.608658     -161.311676      -53.737114
 C         -58.932182     -160.725311      -51.211624
 C         -61.084366     -161.576904      -52.316143
 C         -59.909534     -161.963882      -51.389668
 H         -58.132175     -159.187408      -52.464008
 H         -57.648701     -160.922943      -52.959244
 H         -61.414909     -161.052689      -54.543968
 H         -60.116608     -162.205826      -54.143730
 H         -59.415398     -159.886429      -50.586838
 H         -58.101604     -160.912491      -50.608158
 H         -61.802723     -162.406616      -52.382095
 H         -61.520630     -160.705536      -51.825569
 H         -60.200886     -162.528885      -50.500698
 H         -59.420284     -162.804764      -51.878132
