20
 generated by VMD
 C         -31.400984      -75.620583      -23.668322
 N         -30.942753      -76.099129      -24.592333
 H         -29.545141      -78.307709      -22.171837
 H         -31.873602      -75.203201      -22.777334
 C         -28.486986      -78.145149      -21.974627
 C         -27.636444      -78.366669      -23.135990
 C         -27.910011      -78.139679      -20.609894
 C         -26.379776      -77.436394      -22.964603
 C         -26.805632      -77.058426      -20.506556
 C         -25.802855      -77.285301      -21.630232
 H         -28.125132      -77.977013      -23.917734
 H         -27.378153      -79.402122      -23.228971
 H         -28.642078      -77.789505      -19.882109
 H         -27.434381      -79.106094      -20.165716
 H         -26.578861      -76.424347      -23.369987
 H         -25.727619      -77.869202      -23.712605
 H         -26.339645      -77.182510      -19.502851
 H         -27.170414      -76.074371      -20.729082
 H         -25.154861      -76.418861      -21.649702
 H         -24.986668      -78.049599      -21.421112
