20
 generated by VMD
 C         -79.112190     -205.740158      -73.542274
 N         -79.201683     -206.901352      -73.767685
 H         -78.786995     -206.190918      -70.691292
 H         -79.299263     -204.646790      -73.296394
 C         -77.690048     -206.228119      -70.469856
 C         -76.727562     -205.453552      -71.322586
 C         -77.135117     -207.423950      -69.846001
 C         -75.323921     -205.310562      -70.720634
 C         -75.752647     -207.278442      -69.234077
 C         -74.784233     -206.726929      -70.279457
 H         -77.212448     -204.478683      -71.315056
 H         -76.710770     -205.885071      -72.423912
 H         -77.949776     -207.508682      -69.106903
 H         -77.209206     -208.321487      -70.472084
 H         -75.414948     -204.672256      -69.832924
 H         -74.700241     -204.694946      -71.364983
 H         -75.404037     -208.230301      -68.789566
 H         -75.704506     -206.488449      -68.513680
 H         -73.850845     -206.645706      -69.776917
 H         -74.479424     -207.250732      -71.217796
