20
 generated by VMD
 C         -70.470665     -182.227127      -63.742290
 N         -69.492210     -182.725616      -64.136375
 H         -68.553276     -180.427933      -62.385609
 H         -71.402534     -181.797852      -63.422737
 C         -67.886726     -180.572174      -61.480846
 C         -67.402054     -181.869659      -61.027847
 C         -67.287483     -179.440628      -60.664433
 C         -65.892784     -181.974548      -60.969795
 C         -65.720703     -179.429489      -60.725613
 C         -65.220314     -180.789688      -60.163624
 H         -67.658813     -182.597733      -61.829079
 H         -67.859955     -182.347595      -60.130814
 H         -67.604523     -178.378845      -61.109749
 H         -67.575302     -179.350082      -59.621559
 H         -65.525093     -182.045883      -62.019543
 H         -65.707085     -182.954697      -60.473370
 H         -65.385757     -178.666000      -60.006580
 H         -65.302002     -179.246506      -61.701187
 H         -64.087471     -180.873123      -60.195560
 H         -65.509613     -180.950684      -59.153309
