20
 generated by VMD
 C         -38.531467     -112.579132      -35.808937
 N         -38.086269     -112.023727      -36.694069
 H         -40.884182     -114.596085      -35.256985
 H         -38.749962     -113.285149      -34.973873
 C         -41.824646     -114.309898      -35.488899
 C         -41.915966     -114.449715      -36.932816
 C         -42.731453     -113.430992      -34.722343
 C         -43.346806     -114.677780      -37.355000
 C         -44.098351     -113.869942      -35.177708
 C         -44.284550     -113.714722      -36.667282
 H         -41.452660     -115.393852      -37.260433
 H         -41.643238     -113.600990      -37.486897
 H         -42.717659     -113.596535      -33.638927
 H         -42.469288     -112.416771      -34.979534
 H         -43.460114     -115.680290      -36.991531
 H         -43.435684     -114.666695      -38.442898
 H         -44.746815     -113.164230      -34.512653
 H         -44.436684     -114.873962      -34.714027
 H         -45.312630     -114.039993      -36.845039
 H         -44.168457     -112.623451      -37.078182
