20
 generated by VMD
 C         -40.334496     -100.243744      -30.067524
 N         -41.322594     -100.514938      -30.558607
 H         -37.333054     -101.509605      -30.360815
 H         -39.465599      -99.691841      -29.584097
 C         -36.536930     -100.878304      -30.853672
 C         -36.415421     -100.461342      -32.373028
 C         -35.252300     -100.822861      -30.000410
 C         -35.538525      -99.244247      -32.427238
 C         -34.622658      -99.366920      -30.001034
 C         -34.313560      -99.056511      -31.498234
 H         -37.389927     -100.241638      -32.861900
 H         -35.958031     -101.286522      -32.904408
 H         -35.499401     -101.050728      -28.941973
 H         -34.510025     -101.571701      -30.334848
 H         -36.268852      -98.406334      -32.113628
 H         -35.177357      -98.914879      -33.412186
 H         -33.665459      -99.310265      -29.540709
 H         -35.335831      -98.548920      -29.591082
 H         -33.921635      -98.008614      -31.492504
 H         -33.618275      -99.809921      -31.732704
