20
 generated by VMD
 C         -75.861061     -202.499252      -66.339081
 N         -76.687111     -202.909088      -65.655983
 H         -75.602203     -200.352875      -68.589882
 H         -75.131500     -202.147842      -67.035843
 C         -74.915176     -199.647537      -69.082253
 C         -74.771393     -198.329224      -68.471474
 C         -73.968674     -200.043289      -70.084435
 C         -73.415810     -197.559830      -68.469017
 C         -73.170959     -198.881882      -70.685394
 C         -72.670410     -197.757858      -69.788383
 H         -75.093948     -198.345688      -67.420555
 H         -75.601242     -197.646576      -69.018234
 H         -73.158203     -200.646103      -69.658623
 H         -74.574677     -200.620331      -70.889603
 H         -72.709061     -197.960953      -67.752625
 H         -73.532372     -196.504196      -68.329079
 H         -73.939949     -198.389877      -71.395409
 H         -72.415337     -199.293442      -71.438950
 H         -71.664627     -197.933319      -69.574028
 H         -72.669609     -196.774445      -70.449188
