20
 generated by VMD
 C         -32.818748      -96.597992      -25.388252
 N         -32.882595      -96.111816      -24.319233
 H         -34.350777      -93.907196      -27.500486
 H         -32.901287      -96.881271      -26.360231
 C         -34.603210      -93.393547      -28.435522
 C         -35.984421      -93.545181      -29.075485
 C         -33.400845      -93.238045      -29.375839
 C         -36.248470      -92.458229      -30.127594
 C         -33.751644      -92.214661      -30.536486
 C         -35.169125      -92.544060      -31.120598
 H         -36.833748      -93.548164      -28.443670
 H         -35.925610      -94.589180      -29.461119
 H         -32.537296      -92.885979      -28.842293
 H         -33.076496      -94.190559      -29.816101
 H         -36.370079      -91.507423      -29.701530
 H         -37.084751      -92.604515      -30.800802
 H         -33.011261      -92.466156      -31.251320
 H         -33.755665      -91.132240      -30.180529
 H         -35.210152      -91.904366      -32.153366
 H         -35.257721      -93.581375      -31.494301
