20
 generated by VMD
 C          -7.811111      -23.564287        2.046019
 N          -7.650236      -23.291265        3.109341
 H          -9.119017      -23.389074       -1.679574
 H          -9.399386      -22.437372       -2.967435
 C          -8.576647      -22.850019       -2.397657
 C          -7.775274      -23.758434       -3.405510
 C          -7.826838      -21.725416       -1.706000
 C          -6.932527      -22.867971       -4.438657
 C          -7.020952      -20.934740       -2.760842
 C          -6.164351      -21.793913       -3.620865
 H          -8.446083      -24.471865       -3.800083
 H          -6.955231      -24.266541       -2.822849
 H          -8.420735      -21.020184       -1.126959
 H          -7.172765      -22.241026       -0.975764
 H          -7.622343      -22.268831       -5.027781
 H          -6.186765      -23.480062       -4.966873
 H          -6.438343      -20.171988       -2.245260
 H          -7.773427      -20.452324       -3.400478
 H          -5.602190      -21.176504       -4.349825
 H          -5.361636      -22.352411       -3.056651
