20
 generated by VMD
 C         -12.387394      -31.793865       -8.865570
 N         -12.577028      -30.787973       -8.462013
 H         -10.603358      -34.793167       -7.593012
 H         -11.642476      -33.863686       -6.551867
 C         -11.154733      -34.804104       -6.650635
 C         -10.343091      -34.999729       -5.376786
 C         -12.378470      -35.760658       -6.744312
 C         -11.152622      -35.013435       -4.134871
 C         -13.211237      -35.777611       -5.435177
 C         -12.328522      -35.964325       -4.168402
 H          -9.562653      -34.260975       -5.375051
 H          -9.759994      -35.943436       -5.458155
 H         -12.945458      -35.423206       -7.613530
 H         -12.006348      -36.754395       -6.957245
 H         -11.604503      -34.035213       -3.936526
 H         -10.472620      -35.194141       -3.331846
 H         -14.031295      -36.407681       -5.419374
 H         -13.652698      -34.733334       -5.272087
 H         -12.915975      -35.808773       -3.217646
 H         -11.978823      -37.026241       -4.188438
