20
 generated by VMD
 C         -40.513161     -100.968239      -32.454983
 N         -41.238884     -100.920753      -31.519264
 H         -38.177792     -103.514503      -32.428349
 H         -39.797455     -100.936676      -33.217049
 C         -37.340408     -102.835403      -32.003384
 C         -36.161182     -102.494469      -32.910019
 C         -37.171970     -102.535065      -30.461027
 C         -35.264442     -101.331009      -32.323250
 C         -36.479156     -101.161346      -30.226660
 C         -35.072815     -101.259125      -30.853008
 H         -36.490025     -102.243378      -33.975082
 H         -35.574833     -103.418755      -33.040112
 H         -38.155132     -102.512627      -29.970505
 H         -36.531582     -103.300674      -29.893614
 H         -35.593731     -100.392563      -32.737438
 H         -34.317188     -101.610237      -32.839241
 H         -36.349705     -100.819191      -29.170107
 H         -37.105099     -100.460861      -30.644274
 H         -34.498352     -100.358368      -30.492481
 H         -34.611679     -102.222023      -30.603184
