20
 generated by VMD
 C         -28.096659      -87.888992      -26.620508
 N         -28.233210      -86.849030      -26.047691
 H         -31.133911      -89.288979      -25.995689
 H         -28.188816      -88.805046      -27.147184
 C         -32.116299      -88.840607      -26.190950
 C         -33.232803      -88.733772      -25.073112
 C         -32.692715      -88.788673      -27.623926
 C         -34.477280      -87.845535      -25.374004
 C         -33.668533      -87.695305      -27.760801
 C         -34.854729      -87.788887      -26.840431
 H         -32.816624      -88.220047      -24.263342
 H         -33.467945      -89.741554      -24.694315
 H         -31.792538      -88.656998      -28.160419
 H         -33.101868      -89.779953      -27.893229
 H         -34.344154      -86.802872      -25.041950
 H         -35.220161      -88.256142      -24.783707
 H         -34.196419      -87.646530      -28.759607
 H         -33.295292      -86.691231      -27.540802
 H         -35.557587      -86.913864      -26.883055
 H         -35.512985      -88.622093      -27.121838
