20
 generated by VMD
 C         -23.719753      -68.940384      -16.536381
 N         -23.464106      -69.723091      -15.742803
 H         -23.880775      -66.214005      -19.274126
 H         -24.122726      -68.237038      -17.348104
 C         -24.399427      -67.135147      -19.509977
 C         -23.915234      -67.746628      -20.752117
 C         -25.882040      -67.205254      -19.114182
 C         -24.468988      -69.222366      -20.668251
 C         -26.463657      -68.566017      -19.259098
 C         -25.998549      -69.256691      -20.566370
 H         -22.778627      -67.803749      -20.875153
 H         -24.402782      -67.250244      -21.705271
 H         -26.083351      -66.873589      -18.136971
 H         -26.325912      -66.500633      -19.623804
 H         -23.978720      -69.728279      -19.804470
 H         -24.307480      -69.860100      -21.560831
 H         -27.532900      -68.423622      -19.211309
 H         -26.232939      -69.227554      -18.429369
 H         -26.373257      -70.256393      -20.514713
 H         -26.583195      -68.754829      -21.298830
