20
 generated by VMD
 C         -12.816592      -28.695965       -5.939387
 N         -13.073282      -28.702507       -7.027644
 H         -12.077632      -31.327848       -4.901553
 H         -11.095987      -29.839756       -5.054132
 C         -11.107653      -30.920088       -4.771215
 C         -10.096906      -31.692440       -5.611486
 C         -10.859523      -31.038256       -3.268435
 C          -8.684535      -31.447840       -5.165113
 C          -9.383456      -30.884308       -2.849765
 C          -8.479891      -31.724792       -3.687213
 H         -10.078540      -31.348032       -6.728514
 H         -10.394587      -32.765736       -5.612737
 H         -11.412949      -30.190645       -2.838466
 H         -11.277997      -32.002014       -2.820896
 H          -8.348829      -30.410135       -5.445862
 H          -8.061482      -32.156933       -5.784519
 H          -9.306973      -31.116852       -1.755873
 H          -9.070997      -29.854441       -2.957869
 H          -7.502696      -31.378633       -3.476999
 H          -8.679008      -32.764030       -3.424700
