20
 generated by VMD
 C         -49.270786     -140.929199      -45.550297
 N         -48.264172     -141.343323      -45.052532
 H         -51.284599     -138.593887      -46.071125
 H         -50.261250     -140.803436      -46.032681
 C         -52.015812     -139.373749      -46.251770
 C         -52.645061     -139.418304      -47.680378
 C         -52.849930     -139.868118      -45.167416
 C         -53.398762     -140.709106      -47.960335
 C         -53.428322     -141.222748      -45.494694
 C         -54.186508     -141.283478      -46.840164
 H         -51.803059     -139.236954      -48.336926
 H         -53.375477     -138.550980      -47.852383
 H         -52.277145     -139.933334      -44.207607
 H         -53.741547     -139.248703      -44.934959
 H         -52.867115     -141.508377      -48.262177
 H         -53.995415     -140.365662      -48.769440
 H         -54.092415     -141.785690      -44.714520
 H         -52.523399     -141.917999      -45.427891
 H         -54.629139     -142.293961      -47.117352
 H         -55.078510     -140.640015      -46.573063
