20
 generated by VMD
 C         -58.930687     -168.467224      -55.031582
 N         -57.768520     -168.762604      -54.912369
 H         -62.021523     -168.708221      -55.634804
 H         -59.956879     -168.082245      -54.984592
 C         -62.402637     -167.933243      -56.243938
 C         -62.675167     -168.061966      -57.793652
 C         -62.831440     -166.641510      -55.642437
 C         -64.168022     -167.551758      -58.141399
 C         -64.285492     -166.167786      -56.024307
 C         -64.486610     -166.225830      -57.529350
 H         -62.471630     -169.071594      -58.239216
 H         -61.888229     -167.350113      -58.265743
 H         -62.718670     -166.552963      -54.582840
 H         -62.183819     -165.856842      -56.184093
 H         -64.803894     -168.354507      -57.798462
 H         -64.118736     -167.466110      -59.203712
 H         -64.474060     -165.148315      -55.682693
 H         -65.010689     -166.837723      -55.521492
 H         -65.538307     -165.990341      -57.631050
 H         -63.883041     -165.505035      -58.005672
