20
 generated by VMD
 C         -13.494532      -28.192850       -3.636425
 N         -14.014350      -27.348900       -4.171918
 H         -10.405351      -28.738472       -2.626936
 H         -10.014767      -27.535295       -3.837182
 C          -9.632328      -28.381372       -3.312970
 C          -9.100368      -29.366566       -4.275535
 C          -8.556714      -27.823187       -2.424669
 C          -8.051040      -28.781633       -5.154490
 C          -7.411024      -27.275133       -3.248082
 C          -6.939120      -28.246305       -4.369855
 H          -9.769948      -29.891689       -4.890807
 H          -8.660588      -30.269518       -3.736664
 H          -8.926862      -27.067041       -1.727499
 H          -8.242763      -28.627794       -1.752468
 H          -8.569139      -28.015518       -5.772691
 H          -7.746283      -29.471109       -5.929564
 H          -6.609544      -26.904329       -2.642299
 H          -7.712509      -26.335430       -3.780028
 H          -6.166646      -27.731382       -4.987785
 H          -6.520681      -29.108011       -3.818092
