20
 generated by VMD
 C         -62.782227     -174.719299      -54.601578
 N         -63.228661     -174.201645      -55.578781
 H         -63.199127     -172.992615      -58.164711
 H         -62.354527     -175.084793      -53.671490
 C         -63.737522     -172.096313      -58.451836
 C         -63.799946     -170.850754      -57.487675
 C         -64.410934     -172.051178      -59.859417
 C         -63.802147     -169.581161      -58.287392
 C         -64.240585     -170.737564      -60.443439
 C         -64.657860     -169.704086      -59.449409
 H         -62.979786     -170.955521      -56.880074
 H         -64.768929     -171.061798      -56.893723
 H         -64.041634     -172.934067      -60.388878
 H         -65.380966     -172.379227      -59.780056
 H         -62.794472     -169.415985      -58.656372
 H         -64.155701     -168.787231      -57.724140
 H         -64.951141     -170.619095      -61.318546
 H         -63.198669     -170.550201      -60.799992
 H         -64.622925     -168.667389      -59.918976
 H         -65.674744     -169.847824      -59.150982
