20
 generated by VMD
 C         -24.821135      -70.445244      -16.537260
 N         -25.020372      -70.878304      -15.463355
 H         -23.680147      -68.034264      -18.935278
 H         -24.426165      -70.098114      -17.424156
 C         -24.423107      -68.576012      -19.574423
 C         -23.834848      -69.325256      -20.725307
 C         -25.894657      -68.020103      -19.618851
 C         -24.755690      -70.303566      -21.543491
 C         -26.769241      -69.150749      -20.272957
 C         -26.161320      -69.687973      -21.584660
 H         -22.929073      -69.883682      -20.326170
 H         -23.448446      -68.727196      -21.625492
 H         -26.238417      -67.854568      -18.566591
 H         -25.861654      -66.927864      -20.064260
 H         -24.829885      -71.264557      -21.013178
 H         -24.388983      -70.581612      -22.588909
 H         -27.782948      -68.672737      -20.448833
 H         -26.888313      -69.993256      -19.480593
 H         -26.895842      -70.411430      -21.991560
 H         -26.150623      -68.778839      -22.184237
