20
 generated by VMD
 C         -10.891587      -37.521416       -7.210144
 N         -11.561594      -37.520962       -8.124243
 H         -12.479152      -40.122978       -8.074761
 H         -13.745359      -39.906681       -7.041894
 C         -13.533438      -40.264179       -8.009554
 C         -13.988001      -41.699749       -8.023879
 C         -14.324803      -39.500927       -9.019318
 C         -15.428433      -41.805508       -7.734428
 C         -15.806172      -39.685116       -9.046388
 C         -16.203531      -41.143093       -8.819894
 H         -13.389236      -42.214256       -7.249479
 H         -13.712983      -42.261494       -8.913429
 H         -14.174599      -38.376862       -8.961603
 H         -13.917926      -39.745724      -10.009097
 H         -15.645535      -41.488842       -6.709543
 H         -15.772227      -42.860039       -7.753567
 H         -16.197250      -39.481709      -10.031436
 H         -16.314840      -39.020840       -8.315593
 H         -17.301470      -41.187832       -8.681952
 H         -15.997430      -41.684719       -9.744845
