20
 generated by VMD
 C         -28.127470      -73.512016      -18.342699
 N         -29.009459      -73.409058      -17.568291
 H         -25.354561      -71.830009      -18.743923
 H         -27.280075      -73.609085      -18.961742
 C         -25.472788      -71.918793      -19.781382
 C         -24.507015      -72.783180      -20.674585
 C         -25.918678      -70.676941      -20.472481
 C         -25.210060      -73.157112      -22.018084
 C         -26.230713      -70.728081      -21.876316
 C         -25.545897      -71.794571      -22.739962
 H         -24.210371      -73.699638      -20.107452
 H         -23.634363      -72.080086      -20.762402
 H         -26.803478      -70.384636      -19.875021
 H         -25.097294      -70.011124      -20.243994
 H         -26.204988      -73.623505      -21.903048
 H         -24.549034      -73.702156      -22.692005
 H         -25.961124      -69.730217      -22.212387
 H         -27.253407      -70.865898      -21.995516
 H         -26.292456      -71.933678      -23.533138
 H         -24.658520      -71.284416      -23.271315
