20
 generated by VMD
 C         -13.451495      -30.770491       -8.318567
 N         -13.243176      -30.047318       -9.138494
 H         -11.087830      -31.880274       -6.146618
 H         -11.402565      -31.879694       -4.386313
 C         -11.137300      -32.500206       -5.265723
 C          -9.724270      -32.950405       -4.972620
 C         -12.134271      -33.632732       -5.397145
 C          -9.497425      -34.054688       -3.918955
 C         -11.921465      -34.697910       -4.388635
 C         -10.494328      -35.220898       -4.247084
 H          -9.117900      -32.050480       -4.661353
 H          -9.340817      -33.411968       -5.885250
 H         -13.146013      -33.209377       -5.377155
 H         -11.896817      -34.024483       -6.388268
 H          -9.757235      -33.638802       -2.902670
 H          -8.467285      -34.497650       -3.977603
 H         -12.517891      -35.518723       -4.646422
 H         -12.174249      -34.264320       -3.371649
 H         -10.403042      -35.995773       -3.506754
 H         -10.284883      -35.735733       -5.228269
