20
 generated by VMD
 C         -27.614748      -81.139542      -27.449053
 N         -28.696552      -81.526115      -27.584614
 H         -30.227806      -83.289261      -25.546124
 H         -26.628038      -80.831985      -27.209417
 C         -30.754591      -83.959724      -24.895809
 C         -30.426052      -84.039261      -23.414295
 C         -31.246391      -85.264832      -25.498629
 C         -31.683533      -84.678993      -22.682060
 C         -32.584267      -85.582565      -24.748638
 C         -32.382107      -85.760040      -23.299959
 H         -30.206896      -83.168167      -22.844852
 H         -29.578306      -84.772202      -23.188622
 H         -31.187366      -85.040375      -26.605608
 H         -30.554731      -86.104286      -25.394777
 H         -32.439018      -83.874908      -22.592161
 H         -31.360546      -85.068336      -21.641186
 H         -32.928368      -86.561066      -25.254196
 H         -33.361721      -84.785736      -24.872047
 H         -33.415951      -85.872452      -22.869755
 H         -31.952551      -86.729279      -23.198366
