20
 generated by VMD
 C         -44.224030     -121.888443      -35.904133
 N         -43.845306     -120.758011      -35.845825
 H         -45.003029     -122.670006      -39.639729
 H         -44.766560     -122.769760      -35.828533
 C         -44.788563     -121.586151      -39.476448
 C         -43.439030     -121.066383      -39.636944
 C         -45.899170     -120.671173      -39.120281
 C         -43.339020     -119.540253      -40.174484
 C         -45.726536     -119.188034      -39.580761
 C         -44.267838     -118.684319      -39.440765
 H         -42.904587     -121.714676      -40.352116
 H         -42.968742     -121.203674      -38.603924
 H         -46.873749     -121.065544      -39.482979
 H         -45.897381     -120.889038      -38.061489
 H         -43.451134     -119.345833      -41.283798
 H         -42.301956     -119.285408      -39.968094
 H         -46.538551     -118.600761      -38.973137
 H         -46.104511     -119.249603      -40.579559
 H         -44.137684     -117.703171      -39.773476
 H         -43.990047     -118.531456      -38.422775
