20
 generated by VMD
 C         -49.570595     -127.206230      -40.113850
 N         -49.427570     -126.863060      -39.022995
 H         -46.562195     -126.699791      -42.426876
 H         -49.851051     -127.516090      -41.112442
 C         -46.249901     -126.136719      -41.505733
 C         -45.267719     -126.657417      -40.563396
 C         -46.796532     -124.777016      -41.466679
 C         -44.134270     -125.622910      -40.589596
 C         -45.595505     -123.839493      -41.459354
 C         -44.576973     -124.159187      -40.274605
 H         -44.985950     -127.576210      -40.952118
 H         -45.613701     -126.677505      -39.547256
 H         -47.218094     -124.653900      -42.457478
 H         -47.444305     -124.448181      -40.586224
 H         -43.762756     -125.659523      -41.650120
 H         -43.315659     -126.014328      -39.943794
 H         -45.766068     -122.779068      -41.425480
 H         -44.928066     -123.937920      -42.391869
 H         -43.687996     -123.547745      -40.277939
 H         -45.096306     -123.970337      -39.313080
