20
 generated by VMD
 C         -50.658283     -129.028275      -42.601982
 N         -50.980267     -128.174408      -41.932285
 H         -48.119671     -128.187698      -40.743591
 H         -50.513527     -129.927750      -43.150021
 C         -47.249317     -127.578102      -40.760178
 C         -46.116650     -128.280487      -40.072701
 C         -47.051273     -126.220825      -41.171993
 C         -44.816036     -128.065399      -40.966343
 C         -45.806541     -126.019577      -41.937241
 C         -44.540592     -126.580551      -41.276981
 H         -46.430622     -129.366425      -39.889748
 H         -46.077595     -127.887672      -39.084599
 H         -47.982933     -126.000237      -41.788334
 H         -47.044025     -125.696327      -40.274273
 H         -45.069820     -128.517105      -41.978336
 H         -43.906105     -128.436218      -40.350697
 H         -45.674225     -124.936432      -41.960773
 H         -45.925480     -126.390099      -42.990257
 H         -43.615582     -126.454063      -41.872459
 H         -44.406307     -126.024307      -40.307743
