20
 generated by VMD
 C         -57.024231     -163.483994      -56.638111
 N         -57.216881     -162.508682      -57.312477
 H         -59.915291     -165.421112      -54.824539
 H         -56.710472     -164.339310      -56.032585
 C         -60.776012     -164.767609      -54.691013
 C         -61.470539     -164.958374      -53.365543
 C         -61.557468     -164.521408      -55.967514
 C         -62.750916     -164.142242      -53.276352
 C         -62.833073     -163.688629      -55.607555
 C         -63.654797     -164.402542      -54.475544
 H         -60.820671     -164.716217      -52.544483
 H         -61.835537     -166.003616      -53.273174
 H         -60.978664     -163.980942      -56.743370
 H         -61.990910     -165.391602      -56.400444
 H         -62.483200     -163.041855      -53.151169
 H         -63.338539     -164.376129      -52.383221
 H         -63.427158     -163.816238      -56.536263
 H         -62.437729     -162.607971      -55.324818
 H         -64.581703     -163.805771      -54.334633
 H         -64.024925     -165.411102      -54.608868
