20
 generated by VMD
 C         -50.021854     -142.927689      -45.367035
 N         -48.941494     -143.215149      -45.344189
 H         -51.947544     -139.955078      -45.574543
 H         -51.109268     -142.745407      -45.349251
 C         -52.637711     -140.600143      -46.201653
 C         -52.066895     -140.943649      -47.575596
 C         -54.120258     -140.632584      -46.041618
 C         -52.894993     -142.097809      -48.247150
 C         -54.822750     -141.785767      -46.715466
 C         -54.337841     -141.839188      -48.110489
 H         -50.964676     -141.338791      -47.466022
 H         -52.063065     -140.006531      -48.204197
 H         -54.398090     -140.519882      -44.953438
 H         -54.440109     -139.598038      -46.492661
 H         -52.734051     -143.171341      -47.892498
 H         -52.604225     -142.059662      -49.343155
 H         -55.924973     -141.727402      -46.697765
 H         -54.554745     -142.656067      -46.108845
 H         -54.924847     -142.635437      -48.694611
 H         -54.452923     -140.783813      -48.561546
