20
 generated by VMD
 C         -18.413744      -48.904331       -7.191000
 N         -19.125120      -49.733150       -7.406266
 H         -16.128139      -47.740601      -10.075726
 H         -16.261761      -49.051559      -11.231271
 C         -16.240892      -47.932404      -11.159070
 C         -15.204000      -47.355755      -12.066276
 C         -17.597923      -47.356800      -11.548144
 C         -15.451070      -47.932961      -13.447964
 C         -17.949200      -47.493961      -13.069460
 C         -16.714703      -47.301598      -13.990485
 H         -14.264530      -47.707798      -11.591032
 H         -15.262669      -46.258064      -12.194763
 H         -18.317972      -47.937340      -11.006042
 H         -17.663452      -46.320045      -11.234167
 H         -15.653110      -49.014206      -13.410508
 H         -14.581222      -47.830578      -14.080889
 H         -18.711864      -46.690247      -13.322491
 H         -18.431461      -48.398460      -13.191669
 H         -16.988703      -47.685219      -14.994378
 H         -16.519810      -46.178066      -14.119246
