20
 generated by VMD
 C         -69.320129     -185.054291      -66.618233
 N         -69.261360     -185.083298      -67.789345
 H         -69.395210     -183.087311      -63.332821
 H         -69.464165     -185.016235      -65.584946
 C         -69.273476     -183.263138      -62.263615
 C         -69.706085     -184.427277      -61.464127
 C         -68.190109     -182.518311      -61.555424
 C         -68.612198     -185.403122      -60.994846
 C         -66.979034     -183.392242      -61.256897
 C         -67.383018     -184.674606      -60.518024
 H         -70.436775     -184.948380      -62.117153
 H         -70.086746     -184.144653      -60.516472
 H         -67.904137     -181.739883      -62.254311
 H         -68.471092     -181.975571      -60.545494
 H         -68.219131     -185.992996      -61.766388
 H         -69.018578     -186.046539      -60.234577
 H         -66.186371     -182.719925      -60.865166
 H         -66.542770     -183.853409      -62.161987
 H         -66.420929     -185.399719      -60.485386
 H         -67.444740     -184.351990      -59.447937
