20
 generated by VMD
 C         -69.784233     -183.246475      -65.567955
 N         -70.537109     -182.489441      -65.958656
 H         -67.871490     -184.186127      -63.167358
 H         -69.069885     -183.924484      -65.185593
 C         -67.565865     -183.675385      -62.269531
 C         -67.762001     -184.142563      -60.798443
 C         -67.632462     -182.123459      -62.421375
 C         -67.081886     -183.347702      -59.686394
 C         -66.722694     -181.434875      -61.349178
 C         -67.210274     -181.840500      -59.974751
 H         -67.528687     -185.179123      -60.794643
 H         -68.763954     -184.116409      -60.641666
 H         -67.328064     -181.891708      -63.402645
 H         -68.599922     -181.525879      -62.248856
 H         -65.897118     -183.423935      -59.669441
 H         -67.400200     -183.682892      -58.639740
 H         -66.688339     -180.380432      -61.583969
 H         -65.711685     -181.780945      -61.405426
 H         -66.654503     -181.281433      -59.217445
 H         -68.313179     -181.511765      -59.860806
