20
 generated by VMD
 C         -38.749313      -99.012856      -27.256443
 N         -37.835136      -99.310608      -26.624264
 H         -37.241734      -97.356392      -30.240582
 H         -39.435139      -98.643867      -28.027847
 C         -36.256752      -97.008789      -30.544502
 C         -35.688744      -97.515640      -31.784044
 C         -35.276882      -96.597763      -29.557161
 C         -34.238918      -96.993675      -32.153236
 C         -34.355125      -95.559395      -30.086622
 C         -33.377266      -96.199165      -31.124987
 H         -36.389923      -97.283119      -32.627789
 H         -35.594250      -98.544716      -31.670959
 H         -35.757114      -96.042778      -28.708870
 H         -34.836811      -97.433304      -29.037004
 H         -34.212654      -96.254730      -33.053070
 H         -33.595623      -97.747597      -32.560627
 H         -33.933750      -95.023598      -29.271246
 H         -34.960075      -94.729836      -30.510656
 H         -32.751263      -95.432045      -31.642391
 H         -32.619961      -96.988251      -30.767853
