20
 generated by VMD
 C         -37.036877      -98.018341      -26.149170
 N         -35.953533      -98.408356      -26.215387
 H         -36.306190      -95.381088      -28.470127
 H         -38.076485      -97.537766      -26.207426
 C         -35.593315      -95.373711      -29.290964
 C         -35.706398      -96.290321      -30.410120
 C         -34.250988      -94.663452      -29.128014
 C         -35.216347      -95.625824      -31.687971
 C         -33.864326      -93.884132      -30.430275
 C         -33.823105      -94.919899      -31.627560
 H         -36.805614      -96.614479      -30.388781
 H         -35.132915      -97.233345      -30.261364
 H         -34.380676      -93.878952      -28.354414
 H         -33.468395      -95.391876      -28.824335
 H         -35.909836      -94.755676      -31.865309
 H         -35.393127      -96.350716      -32.488144
 H         -32.911499      -93.369545      -30.278034
 H         -34.562492      -92.980072      -30.710728
 H         -33.763706      -94.314133      -32.451916
 H         -32.882584      -95.665085      -31.533276
