20
 generated by VMD
 C         -47.932564     -134.479660      -47.133892
 N         -48.018265     -133.886261      -48.176216
 H         -49.820633     -134.263947      -44.410820
 H         -48.072369     -135.123550      -46.220375
 C         -50.331348     -135.196686      -44.003120
 C         -50.692879     -136.401276      -44.947289
 C         -51.121307     -135.001694      -42.835350
 C         -50.831722     -137.666443      -44.098038
 C         -51.306374     -136.371399      -42.023720
 C         -51.769024     -137.468567      -42.878677
 H         -49.859970     -136.644806      -45.746174
 H         -51.607208     -136.248642      -45.492950
 H         -50.823563     -134.087479      -42.250496
 H         -52.150223     -134.803696      -43.158672
 H         -49.812950     -137.853851      -43.718731
 H         -51.060337     -138.508316      -44.784863
 H         -51.991573     -136.307785      -41.149315
 H         -50.320457     -136.595535      -41.712322
 H         -51.789509     -138.431870      -42.369995
 H         -52.897491     -137.328018      -43.222942
