20
 generated by VMD
 C         -13.924426      -42.978619       -6.195233
 N         -12.914360      -43.480080       -6.236733
 H         -14.673397      -45.015312       -9.107672
 H         -14.328514      -43.766182      -10.200890
 C         -15.156916      -44.389706       -9.896214
 C         -16.406254      -43.654388       -9.428218
 C         -15.549479      -45.302467      -11.049129
 C         -16.922527      -42.800785      -10.554073
 C         -15.860971      -44.495857      -12.234094
 C         -17.049274      -43.585747      -11.873066
 H         -16.249987      -43.131653       -8.478461
 H         -17.248024      -44.360664       -9.219699
 H         -14.761393      -46.056648      -11.298020
 H         -16.381475      -46.003338      -10.661904
 H         -16.306141      -41.939426      -10.725126
 H         -17.919445      -42.437584      -10.300832
 H         -16.256912      -45.014133      -13.134432
 H         -14.965012      -43.959126      -12.555975
 H         -17.270515      -42.868027      -12.672800
 H         -17.919107      -44.255142      -11.798795
