20
 generated by VMD
 C         -12.771437      -30.100718       -8.360568
 N         -13.760394      -30.620186       -8.413847
 H         -10.996151      -30.861795       -5.213890
 H         -10.773994      -31.358332       -3.493732
 C         -10.757769      -31.712467       -4.598461
 C          -9.385256      -32.269585       -4.955107
 C         -11.954505      -32.720978       -4.808519
 C          -9.277857      -33.622261       -4.274013
 C         -11.679266      -34.087902       -4.171367
 C         -10.376669      -34.634159       -4.576907
 H          -8.578776      -31.534121       -4.576981
 H          -9.410579      -32.372280       -6.019700
 H         -12.886468      -32.349022       -4.386498
 H         -12.027308      -32.851429       -5.892283
 H          -9.326669      -33.477474       -3.220589
 H          -8.333399      -34.026936       -4.593525
 H         -12.412661      -34.806969       -4.459313
 H         -11.626265      -34.043941       -3.058986
 H         -10.237269      -35.532120       -3.999565
 H         -10.404671      -34.854740       -5.645821
