20
 generated by VMD
 C         -60.033676     -171.443726      -55.272583
 N         -59.434742     -172.403961      -54.935490
 H         -63.102100     -170.367050      -56.924240
 H         -60.513470     -170.561768      -55.708344
 C         -63.475838     -169.385162      -56.833420
 C         -62.506310     -168.426758      -57.453583
 C         -64.864967     -169.149445      -56.781288
 C         -63.002449     -167.915024      -58.806976
 C         -65.518661     -168.766769      -58.218899
 C         -64.502403     -167.498032      -58.626350
 H         -61.538540     -168.841919      -57.541592
 H         -62.439648     -167.439362      -56.822155
 H         -65.475731     -170.065063      -56.570511
 H         -65.207298     -168.301117      -56.097244
 H         -62.801613     -168.740936      -59.567009
 H         -62.326839     -167.098846      -59.156807
 H         -66.527115     -168.460083      -58.080494
 H         -65.348907     -169.501801      -58.954784
 H         -64.995529     -167.095749      -59.538528
 H         -64.517227     -166.786209      -57.836266
