20
 generated by VMD
 C         -47.433681     -138.297211      -45.734299
 N         -47.134804     -138.124298      -46.828861
 H         -50.483910     -138.003769      -44.782974
 H         -47.792957     -138.593369      -44.790428
 C         -51.467991     -138.388931      -44.996136
 C         -51.544621     -138.898346      -46.390152
 C         -52.624580     -138.044937      -44.100586
 C         -52.660545     -139.957306      -46.503754
 C         -53.868759     -138.991119      -44.375969
 C         -54.021755     -139.396240      -45.880688
 H         -50.670902     -139.296570      -46.837292
 H         -51.674881     -137.979156      -47.015659
 H         -52.301136     -137.989517      -43.063866
 H         -53.054596     -137.079468      -44.403267
 H         -52.319065     -140.858276      -46.001389
 H         -52.747101     -140.316071      -47.561031
 H         -54.844158     -138.573532      -44.020016
 H         -53.739639     -139.774887      -43.746830
 H         -54.890015     -140.215973      -45.691677
 H         -54.442467     -138.492737      -46.353222
