20
 generated by VMD
 C         -59.462410     -169.157974      -55.789951
 N         -59.655762     -168.588730      -54.831280
 H         -62.628704     -169.888565      -56.026016
 H         -59.400204     -169.615875      -56.752426
 C         -63.029583     -169.044540      -56.582573
 C         -62.846199     -168.813950      -58.019005
 C         -63.244995     -168.003189      -55.622597
 C         -63.592068     -167.644211      -58.525219
 C         -64.108139     -166.843918      -56.191635
 C         -63.545975     -166.427094      -57.560085
 H         -63.018276     -169.775665      -58.478817
 H         -61.731125     -168.631821      -58.210972
 H         -63.812675     -168.291458      -54.678753
 H         -62.315712     -167.539154      -55.292252
 H         -64.591682     -167.902176      -58.802944
 H         -63.094822     -167.439972      -59.457775
 H         -64.075203     -165.943985      -55.465961
 H         -65.228027     -167.214737      -56.086357
 H         -64.238312     -165.727020      -57.955891
 H         -62.597996     -165.900299      -57.652561
