20
 generated by VMD
 C         -12.099989      -25.386049       -0.528919
 N         -12.864266      -25.868002        0.119304
 H          -8.691605      -26.740126       -1.932835
 H          -9.345289      -26.086340       -3.466177
 C          -8.456838      -26.215351       -2.897766
 C          -7.474114      -27.044952       -3.776261
 C          -7.848125      -24.954342       -2.380929
 C          -6.928339      -26.132158       -4.983531
 C          -7.305976      -24.059616       -3.546775
 C          -6.256997      -24.843031       -4.418190
 H          -7.980151      -27.992741       -4.126143
 H          -6.689465      -27.438610       -3.215197
 H          -8.620741      -24.371824       -1.880842
 H          -7.112733      -25.065895       -1.565022
 H          -7.687408      -25.817657       -5.683824
 H          -6.214407      -26.711060       -5.552820
 H          -6.746265      -23.258406       -3.051737
 H          -8.135249      -23.688375       -4.176513
 H          -6.006350      -24.170422       -5.262540
 H          -5.387611      -25.013510       -3.751647
