20
 generated by VMD
 C         -41.355335     -102.323402      -34.538071
 N         -41.275597     -101.883278      -35.584236
 H         -39.575493     -104.308685      -32.216949
 H         -41.181293     -102.761940      -33.619083
 C         -38.606785     -104.445076      -31.920481
 C         -37.551849     -103.789223      -32.856430
 C         -38.183792     -105.590416      -31.009098
 C         -36.192833     -103.620407      -32.238056
 C         -36.996170     -105.015808      -30.274483
 C         -35.849174     -104.682556      -31.275032
 H         -38.073589     -102.841713      -33.132404
 H         -37.492439     -104.452446      -33.691067
 H         -39.122353     -105.792587      -30.336037
 H         -37.856663     -106.508247      -31.458794
 H         -36.039177     -102.794685      -31.595943
 H         -35.456303     -103.552582      -33.050758
 H         -36.533077     -105.800194      -29.645229
 H         -37.334991     -104.169022      -29.525730
 H         -34.970703     -104.433189      -30.778629
 H         -35.715164     -105.544769      -31.967117
