20
 generated by VMD
 C         -79.620827     -205.366119      -71.690567
 N         -79.814178     -206.533005      -71.578842
 H         -76.694389     -204.247681      -72.031227
 H         -79.384407     -204.299942      -72.020760
 C         -76.245789     -204.140945      -71.041161
 C         -75.455544     -202.909027      -70.673866
 C         -76.404541     -205.239304      -70.037354
 C         -74.019577     -203.319412      -70.192986
 C         -75.198723     -205.474564      -69.167747
 C         -73.991966     -204.751648      -69.729515
 H         -76.036324     -202.513184      -69.797798
 H         -75.498283     -202.205826      -71.459152
 H         -77.403267     -204.999680      -69.487862
 H         -76.581314     -206.215179      -70.556412
 H         -73.615685     -202.572891      -69.399826
 H         -73.325836     -203.121460      -71.068161
 H         -75.043465     -206.574402      -68.951202
 H         -75.317513     -205.084213      -68.211960
 H         -73.128021     -204.891495      -69.031273
 H         -73.777359     -205.318039      -70.601646
