20
 generated by VMD
 C         -28.147764      -86.433922      -26.911076
 N         -27.776337      -85.546944      -26.311539
 H         -31.158960      -85.437820      -25.622692
 H         -28.422207      -87.319038      -27.576944
 C         -31.938183      -86.211189      -25.591152
 C         -32.590626      -86.868622      -24.370537
 C         -32.007458      -86.963585      -26.905876
 C         -33.957230      -87.217560      -24.750013
 C         -33.383148      -87.604828      -27.173542
 C         -34.148376      -88.189445      -25.992388
 H         -32.612488      -86.167664      -23.492844
 H         -31.841574      -87.611404      -24.010023
 H         -31.738073      -86.279709      -27.758818
 H         -31.288559      -87.766762      -26.865032
 H         -34.702469      -86.418037      -24.947449
 H         -34.545853      -87.632530      -23.966223
 H         -33.189651      -88.319527      -27.965769
 H         -33.986538      -86.804092      -27.742744
 H         -35.288448      -88.310501      -26.199339
 H         -33.662811      -89.213211      -25.780426
