20
 generated by VMD
 C          -1.656179      -13.886689        1.222327
 N          -1.851635      -12.820915        1.494170
 H          -3.800414      -17.183977        1.752501
 H          -4.052778      -17.131666       -0.023627
 C          -4.554189      -17.119635        0.941633
 C          -5.130241      -15.742405        1.111353
 C          -5.599752      -18.235523        0.891299
 C          -6.337874      -15.476791        0.216017
 C          -6.809212      -17.962191       -0.040895
 C          -7.404153      -16.541376        0.374585
 H          -4.383178      -14.940307        1.042628
 H          -5.550180      -15.580722        2.136545
 H          -5.106877      -19.061062        0.508325
 H          -5.969705      -18.295574        1.865411
 H          -6.010273      -15.362235       -0.779949
 H          -6.727931      -14.497551        0.513701
 H          -7.562781      -18.742613        0.016708
 H          -6.424933      -17.913528       -1.092554
 H          -8.305509      -16.324764       -0.236399
 H          -7.783169      -16.611664        1.406773
