20
 generated by VMD
 C          -1.367198      -10.898098        0.741315
 N          -1.072113      -10.103218        1.513597
 H          -3.792998      -12.696922        0.340817
 H          -4.906485      -12.391586        1.696210
 C          -4.372807      -13.156990        1.171002
 C          -3.438980      -13.909473        2.201779
 C          -5.410696      -14.043118        0.571246
 C          -4.276954      -14.655063        3.304892
 C          -6.243133      -14.714161        1.664864
 C          -5.412407      -15.479074        2.672920
 H          -2.756524      -13.213311        2.632773
 H          -2.814785      -14.629514        1.661489
 H          -6.177652      -13.489576       -0.053139
 H          -5.024687      -14.873404       -0.096350
 H          -4.734868      -13.884011        3.966016
 H          -3.591086      -15.306134        3.884971
 H          -6.995713      -15.369095        1.281737
 H          -6.717809      -13.882532        2.209318
 H          -6.072327      -15.903149        3.485806
 H          -4.895706      -16.302572        2.110188
