20
 generated by VMD
 C         -13.088778      -28.667704       -5.757647
 N         -12.708583      -27.697033       -5.373153
 H         -11.379751      -31.091370       -3.266309
 H         -11.119341      -29.508682       -4.267236
 C         -10.693520      -30.394733       -3.760015
 C          -9.790726      -31.118908       -4.767644
 C          -9.853982      -29.776489       -2.690059
 C          -8.690772      -30.156248       -5.383821
 C          -8.655787      -28.926138       -3.133768
 C          -7.811653      -29.678696       -4.180600
 H         -10.397093      -31.577639       -5.612614
 H          -9.249878      -31.863663       -4.247264
 H         -10.466529      -29.166492       -2.003137
 H          -9.385821      -30.580482       -2.040199
 H          -9.207121      -29.315247       -5.804857
 H          -8.052328      -30.662508       -6.130177
 H          -8.060584      -28.694195       -2.195959
 H          -9.079406      -28.036674       -3.547714
 H          -7.054493      -29.017483       -4.508884
 H          -7.208339      -30.568920       -3.906309
