20
 generated by VMD
 C         -73.847145     -201.570267      -65.357315
 N         -72.877213     -201.049927      -65.739166
 H         -74.992821     -198.039093      -66.749062
 H         -74.783249     -202.019028      -65.068001
 C         -74.731850     -197.613632      -67.703712
 C         -74.860741     -196.160278      -67.975479
 C         -74.293854     -198.413193      -68.930786
 C         -73.493500     -195.627457      -68.553482
 C         -73.605843     -197.603210      -70.031609
 C         -72.666862     -196.535294      -69.376152
 H         -75.179993     -195.790222      -67.048897
 H         -75.591835     -196.056107      -68.776566
 H         -73.575417     -199.220825      -68.598358
 H         -75.226532     -198.834259      -69.478210
 H         -72.891907     -195.496094      -67.675232
 H         -73.701424     -194.653168      -69.013222
 H         -74.180664     -197.196106      -70.811554
 H         -72.953514     -198.273224      -70.652283
 H         -71.832588     -196.926468      -68.786362
 H         -72.189026     -195.816528      -70.163780
