20
 generated by VMD
 C         -29.680397      -79.893036      -26.409918
 N         -29.619093      -80.114464      -27.554586
 H         -28.362566      -82.548309      -24.864161
 H         -29.465052      -79.823242      -25.292542
 C         -29.190216      -82.984749      -24.291164
 C         -29.189838      -82.579041      -22.858555
 C         -30.047337      -84.114067      -24.905975
 C         -30.634624      -82.652702      -22.378731
 C         -31.427240      -84.224770      -24.206758
 C         -31.304169      -84.007751      -22.652842
 H         -28.774712      -81.640808      -22.593298
 H         -28.649538      -83.335632      -22.226303
 H         -30.066490      -83.902924      -25.918839
 H         -29.519875      -85.108238      -24.913597
 H         -31.292784      -81.767601      -22.790955
 H         -30.741520      -82.410797      -21.350660
 H         -31.912617      -85.108055      -24.439135
 H         -32.120674      -83.494591      -24.661758
 H         -32.321388      -83.995567      -22.426430
 H         -30.786932      -84.808571      -22.080429
