20
 generated by VMD
 C         -18.218555      -49.257317       -8.205836
 N         -19.155909      -49.842831       -8.254788
 H         -16.324575      -47.608208       -9.959598
 H         -16.764801      -49.089523      -10.819969
 C         -16.565939      -48.023857      -10.939383
 C         -15.351295      -47.813808      -11.866563
 C         -17.738153      -47.269356      -11.530605
 C         -15.724061      -48.600899      -13.133507
 C         -17.981079      -47.555813      -13.026865
 C         -16.753124      -47.807739      -13.840186
 H         -14.552829      -48.243248      -11.307487
 H         -15.130692      -46.761356      -12.162966
 H         -18.690664      -47.366894      -10.961174
 H         -17.526535      -46.204132      -11.449046
 H         -16.092735      -49.618294      -12.951876
 H         -14.845163      -48.805489      -13.770466
 H         -18.508196      -46.789112      -13.562858
 H         -18.618103      -48.517868      -13.052015
 H         -17.059990      -48.294907      -14.782334
 H         -16.263533      -46.873211      -14.115802
