20
 generated by VMD
 C         -38.372189     -108.019142      -36.811489
 N         -38.227833     -108.627502      -37.780197
 H         -41.044827     -108.739166      -35.265495
 H         -38.597122     -107.386902      -35.964603
 C         -41.163956     -109.679565      -34.863277
 C         -40.453392     -110.904053      -35.212254
 C         -42.483688     -109.906059      -34.082333
 C         -40.195675     -111.729004      -33.995426
 C         -42.164017     -110.661247      -32.817211
 C         -41.505836     -111.977654      -33.106018
 H         -39.485348     -110.697029      -35.651093
 H         -41.033558     -111.381958      -35.983948
 H         -42.852444     -108.894173      -33.846554
 H         -43.176765     -110.489319      -34.787750
 H         -39.496864     -111.134018      -33.357162
 H         -39.744251     -112.653198      -34.251568
 H         -43.060551     -110.771164      -32.239594
 H         -41.460808     -109.975731      -32.203140
 H         -41.261425     -112.559479      -32.245331
 H         -42.158916     -112.658218      -33.655037
