20
 generated by VMD
 C         -66.118027     -177.889832      -56.881920
 N         -67.087944     -177.276917      -57.126381
 H         -64.054497     -175.310074      -58.377213
 H         -65.177284     -178.455963      -56.673080
 C         -64.388336     -174.823776      -59.338306
 C         -65.664795     -174.045654      -59.153854
 C         -63.385307     -174.473465      -60.414730
 C         -65.270950     -172.547409      -59.065487
 C         -63.080296     -172.985306      -60.397480
 C         -64.237389     -172.091507      -60.207664
 H         -66.175674     -174.333252      -58.201656
 H         -66.411789     -174.318298      -59.894161
 H         -62.411438     -175.100449      -60.195152
 H         -63.740349     -174.943253      -61.352074
 H         -64.815826     -172.239471      -58.100147
 H         -66.113785     -171.850128      -59.115211
 H         -62.487572     -172.898987      -61.324917
 H         -62.459576     -172.653961      -59.579079
 H         -63.972965     -171.043121      -60.234818
 H         -64.890289     -172.211639      -61.113007
