20
 generated by VMD
 C          -9.883632      -24.681797        0.479694
 N         -10.422188      -25.151133       -0.381155
 H          -6.573461      -24.408548       -0.702249
 H          -8.214078      -24.121702       -1.194679
 C          -7.222276      -24.203707       -1.605976
 C          -7.100985      -25.315008       -2.681108
 C          -6.713676      -22.877153       -2.270284
 C          -8.086290      -25.052156       -3.843414
 C          -7.675070      -22.581640       -3.392647
 C          -7.706535      -23.676067       -4.448687
 H          -7.337404      -26.210678       -2.152806
 H          -6.152457      -25.340479       -3.153775
 H          -6.801120      -22.071390       -1.569546
 H          -5.649420      -23.095608       -2.550287
 H          -9.118010      -25.047831       -3.479813
 H          -7.914654      -25.872919       -4.606148
 H          -7.373685      -21.687101       -3.913551
 H          -8.696782      -22.428425       -3.053334
 H          -8.509510      -23.379637       -5.099796
 H          -6.741357      -23.754177       -5.037956
