20
 generated by VMD
 C         -58.305145     -167.167191      -55.738701
 N         -57.525028     -167.717651      -55.030708
 H         -61.270401     -166.343613      -54.900486
 H         -59.024612     -166.696182      -56.428848
 C         -61.714565     -165.932434      -55.826309
 C         -62.010582     -166.867081      -56.871857
 C         -62.646091     -164.718094      -55.662704
 C         -63.522747     -167.359161      -56.805424
 C         -64.047897     -165.210800      -55.493656
 C         -64.483727     -166.144470      -56.666679
 H         -61.416393     -167.729645      -56.857857
 H         -61.999046     -166.377838      -57.927059
 H         -62.243416     -164.058609      -54.889610
 H         -62.655014     -164.077957      -56.635536
 H         -63.598045     -168.218704      -56.112980
 H         -63.648190     -167.916550      -57.778717
 H         -64.748070     -164.444321      -55.510910
 H         -64.246231     -165.802780      -54.660458
 H         -65.433807     -166.631744      -56.541405
 H         -64.374016     -165.564331      -57.569759
