20
 generated by VMD
 C         -19.791752      -59.961933      -17.055853
 N         -18.875872      -60.620369      -16.947033
 H         -22.832596      -60.787094      -17.216789
 H         -20.708624      -59.231651      -17.056602
 C         -23.239294      -61.817898      -17.060261
 C         -23.837259      -62.717754      -18.137604
 C         -23.412424      -62.306320      -15.701346
 C         -23.831739      -64.240097      -17.842989
 C         -23.095322      -63.804340      -15.420948
 C         -24.145054      -64.495041      -16.276583
 H         -23.364302      -62.496643      -19.116907
 H         -24.876469      -62.337322      -18.209410
 H         -22.774141      -61.703850      -15.010683
 H         -24.493731      -62.135212      -15.484246
 H         -22.812185      -64.618271      -17.934351
 H         -24.574924      -64.881119      -18.401333
 H         -23.364351      -63.982563      -14.400593
 H         -22.070290      -64.090820      -15.631992
 H         -23.963535      -65.568848      -15.992715
 H         -25.205027      -64.208748      -16.030918
