20
 generated by VMD
 C         -70.818748     -181.589508      -64.237862
 N         -70.209152     -182.380951      -63.621983
 H         -68.580315     -181.112289      -61.150139
 H         -71.415131     -180.779205      -64.737747
 C         -67.563553     -180.767502      -60.804955
 C         -66.568306     -181.792847      -60.583427
 C         -67.303505     -179.357941      -60.393604
 C         -65.070091     -181.237122      -60.806553
 C         -65.868851     -178.904739      -60.917530
 C         -64.815918     -179.796066      -60.315720
 H         -66.603447     -182.665649      -61.275005
 H         -66.514763     -182.108582      -59.459724
 H         -68.147263     -178.818863      -60.731541
 H         -67.293167     -179.375412      -59.234249
 H         -64.641899     -181.473541      -61.757160
 H         -64.325432     -181.760162      -60.217434
 H         -65.726746     -177.852554      -60.662022
 H         -65.778755     -178.939087      -62.015450
 H         -63.807789     -179.508301      -60.559708
 H         -64.939346     -179.804901      -59.190788
