20
 generated by VMD
 C         -79.175598     -207.691238      -75.252411
 N         -78.560074     -207.155548      -76.090645
 H         -78.874809     -210.274887      -73.390221
 H         -79.731529     -208.405457      -74.543289
 C         -78.450691     -210.022873      -72.413170
 C         -77.230263     -209.121841      -72.386047
 C         -78.597275     -211.152710      -71.355919
 C         -76.950188     -208.671341      -70.864143
 C         -78.429199     -210.537628      -69.980782
 C         -77.083069     -209.811264      -69.810516
 H         -77.223236     -208.299698      -73.078308
 H         -76.437271     -209.805847      -72.759163
 H         -79.577942     -211.716339      -71.393829
 H         -77.805824     -211.913559      -71.497238
 H         -77.674553     -207.903305      -70.597374
 H         -75.952927     -208.275940      -70.623329
 H         -78.404846     -211.327621      -69.259453
 H         -79.333900     -209.907608      -69.639389
 H         -76.859009     -209.453018      -68.766434
 H         -76.311340     -210.570999      -70.093269
