20
 generated by VMD
 C         -41.600189     -119.416794      -34.481705
 N         -41.196426     -119.941986      -35.474613
 H         -43.405308     -118.179916      -36.584427
 H         -41.731194     -118.752167      -33.690357
 C         -43.800945     -118.208687      -37.593254
 C         -42.958527     -118.104355      -38.896423
 C         -45.135357     -117.565002      -37.637222
 C         -43.727356     -118.635857      -40.051121
 C         -45.968361     -117.837715      -38.838177
 C         -45.043766     -117.887375      -40.130657
 H         -42.036930     -118.668922      -38.740208
 H         -42.736382     -117.081100      -38.906204
 H         -45.740208     -117.763283      -36.733074
 H         -44.878872     -116.511353      -37.563087
 H         -43.782425     -119.711769      -39.890511
 H         -43.164680     -118.509758      -40.950645
 H         -46.858685     -117.270897      -39.087624
 H         -46.362751     -118.903816      -38.749260
 H         -45.580788     -118.271805      -41.074615
 H         -44.802704     -116.800934      -40.443092
