20
 generated by VMD
 C         -40.896935     -102.220665      -35.005375
 N         -41.582058     -102.082375      -35.916744
 H         -39.840755     -104.488396      -31.975740
 H         -40.149036     -102.378098      -34.303944
 C         -38.762413     -104.654610      -31.843691
 C         -37.845631     -104.136650      -32.850796
 C         -38.292343     -105.914955      -31.031345
 C         -36.532856     -103.718681      -32.077389
 C         -36.938343     -105.629372      -30.385578
 C         -35.901463     -104.898476      -31.294952
 H         -38.092800     -103.199852      -33.233891
 H         -37.806572     -104.923264      -33.628654
 H         -39.034752     -106.138306      -30.294678
 H         -38.384769     -106.731499      -31.862297
 H         -36.707394     -102.868332      -31.365477
 H         -35.755238     -103.454124      -32.816219
 H         -36.339752     -106.452347      -30.065224
 H         -37.064556     -104.949234      -29.431986
 H         -35.022423     -104.598389      -30.747086
 H         -35.552311     -105.679665      -31.994852
