20
 generated by VMD
 C         -19.475632      -58.104404      -17.126753
 N         -19.260187      -58.646240      -18.156902
 H         -22.662827      -59.662647      -16.608055
 H         -19.937834      -57.657383      -16.353189
 C         -22.985205      -60.683155      -16.152998
 C         -23.914276      -61.593079      -16.906424
 C         -22.126219      -61.057941      -15.008278
 C         -23.394323      -63.054890      -16.880299
 C         -22.057810      -62.545101      -14.768291
 C         -23.074909      -63.421814      -15.436691
 H         -24.077038      -61.190849      -17.907265
 H         -24.826811      -61.580681      -16.328520
 H         -21.177658      -60.643448      -15.138043
 H         -22.426458      -60.659576      -14.038080
 H         -22.479992      -63.092674      -17.429728
 H         -24.115870      -63.725101      -17.248283
 H         -21.915798      -62.751484      -13.694238
 H         -21.040546      -62.810680      -15.081862
 H         -22.695448      -64.450859      -15.305107
 H         -24.029522      -63.373878      -14.899831
