20
 generated by VMD
 C         -19.973387      -59.690884      -17.538420
 N         -19.410408      -58.902782      -18.192663
 H         -23.460932      -59.796738      -15.962440
 H         -20.449347      -60.600399      -17.047127
 C         -22.964554      -60.745911      -16.056690
 C         -23.197187      -61.510365      -17.301811
 C         -22.944849      -61.462940      -14.669050
 C         -22.976526      -63.020138      -17.196253
 C         -22.631071      -62.947323      -14.672503
 C         -23.237732      -63.734703      -15.857521
 H         -22.626894      -61.029892      -18.137026
 H         -24.243504      -61.324848      -17.717566
 H         -22.116226      -60.950977      -14.248961
 H         -23.825251      -61.232716      -14.042233
 H         -21.900661      -63.262253      -17.394522
 H         -23.491405      -63.511631      -18.017361
 H         -22.996235      -63.399258      -13.788022
 H         -21.571560      -63.081226      -14.691044
 H         -22.899996      -64.763039      -15.900941
 H         -24.298296      -63.874958      -15.779005
