20
 generated by VMD
 C         -29.906988      -79.893242      -26.309807
 N         -29.445745      -79.995522      -27.353092
 H         -28.206041      -82.731628      -25.050854
 H         -30.198269      -79.875610      -25.257128
 C         -29.164618      -82.899338      -24.486235
 C         -29.221773      -82.420410      -23.038458
 C         -30.005121      -84.169098      -24.821518
 C         -30.542381      -82.488052      -22.382164
 C         -31.330576      -84.124146      -24.070002
 C         -31.230829      -83.901718      -22.553881
 H         -28.817457      -81.341934      -23.027233
 H         -28.643244      -83.174988      -22.552137
 H         -30.299242      -84.215759      -25.949110
 H         -29.380688      -85.038994      -24.556046
 H         -31.119604      -81.762062      -22.841734
 H         -30.470675      -82.252541      -21.265331
 H         -31.890793      -85.107925      -24.299919
 H         -31.920300      -83.289467      -24.470142
 H         -32.323402      -83.820923      -22.069399
 H         -30.657938      -84.803749      -22.173389
