20
 generated by VMD
 C          -9.306807      -24.575108        1.094410
 N          -9.807032      -25.348675        1.708695
 H          -6.957553      -23.274162       -0.665743
 H          -8.362458      -22.707392       -1.338648
 C          -7.352744      -23.056654       -1.660381
 C          -7.508392      -24.346172       -2.449973
 C          -6.586146      -21.932711       -2.402296
 C          -7.993399      -24.103594       -3.856638
 C          -7.084783      -21.717714       -3.859886
 C          -7.067289      -23.081810       -4.621335
 H          -8.169430      -24.968889       -1.963048
 H          -6.487067      -24.733662       -2.403952
 H          -6.691120      -21.000523       -1.838990
 H          -5.514818      -22.185995       -2.552487
 H          -9.035141      -23.746620       -3.781437
 H          -7.930772      -25.065083       -4.377311
 H          -6.407545      -20.979052       -4.314047
 H          -8.101196      -21.334072       -3.869753
 H          -7.446289      -22.922924       -5.668796
 H          -6.051409      -23.529049       -4.663929
