20
 generated by VMD
 C         -59.796490     -157.515671      -56.748531
 N         -59.215534     -158.573151      -56.632473
 H         -60.389374     -157.563324      -52.890438
 H         -60.354801     -156.579102      -56.768463
 C         -59.745125     -158.417328      -52.639809
 C         -58.292053     -158.043594      -52.297581
 C         -60.142242     -159.835861      -53.069180
 C         -57.831726     -159.247330      -51.323746
 C         -59.626610     -160.857285      -52.085499
 C         -58.138741     -160.690582      -51.803799
 H         -58.279087     -157.082855      -51.657490
 H         -57.714951     -158.069855      -53.236725
 H         -61.257515     -159.902878      -53.042164
 H         -59.935242     -159.979141      -54.073223
 H         -58.316231     -159.242111      -50.391457
 H         -56.781307     -158.972443      -51.005569
 H         -60.042000     -161.791443      -52.404594
 H         -60.079750     -160.814957      -51.098907
 H         -57.746578     -161.338425      -51.118977
 H         -57.545353     -160.920364      -52.690693
