20
 generated by VMD
 C         -40.365517     -105.984055      -37.009659
 N         -39.911671     -106.795845      -37.708370
 H         -38.495434     -108.000725      -34.713867
 H         -40.946537     -105.158340      -36.591358
 C         -39.141033     -108.643806      -34.175877
 C         -38.444271     -109.620995      -33.093742
 C         -40.553429     -108.901039      -34.469173
 C         -39.443905     -109.890053      -31.964186
 C         -41.393555     -109.202553      -33.254700
 C         -40.764347     -110.302109      -32.427910
 H         -37.574310     -109.097130      -32.632114
 H         -38.313099     -110.556091      -33.616745
 H         -40.905052     -107.998543      -34.959984
 H         -40.572643     -109.708382      -35.266678
 H         -39.734180     -109.089119      -31.262085
 H         -38.916290     -110.753227      -31.349140
 H         -42.348335     -109.572662      -33.682228
 H         -41.584137     -108.300224      -32.685932
 H         -41.417542     -110.609612      -31.522575
 H         -40.703247     -111.120613      -33.026634
