20
 generated by VMD
 C          -2.588419      -16.731766        2.792030
 N          -1.893589      -17.098467        2.000734
 H          -4.659638      -16.162300        0.508731
 H          -4.571867      -17.348030       -0.741487
 C          -5.289120      -16.850012       -0.049570
 C          -6.258796      -16.222073       -1.101140
 C          -5.842622      -17.897974        0.879383
 C          -7.272078      -17.277712       -1.663987
 C          -6.658475      -18.859787        0.085950
 C          -7.816708      -18.186720       -0.612347
 H          -5.753396      -15.696706       -1.932116
 H          -6.831684      -15.503384       -0.495720
 H          -4.999174      -18.424267        1.341520
 H          -6.478790      -17.312527        1.534706
 H          -6.803683      -17.860819       -2.493050
 H          -8.111077      -16.701372       -2.127557
 H          -7.098688      -19.565416        0.778809
 H          -6.111545      -19.423512       -0.704177
 H          -8.409893      -18.965851       -1.079823
 H          -8.511981      -17.747633        0.089944
