20
 generated by VMD
 C         -38.425247     -109.282768      -36.508701
 N         -37.340733     -108.844284      -36.315384
 H         -42.266766     -110.135132      -36.715076
 H         -39.398064     -109.603172      -36.663765
 C         -42.247837     -110.703293      -35.736996
 C         -41.656013     -112.122391      -36.015553
 C         -42.837502     -110.275673      -34.455395
 C         -40.841583     -112.581604      -34.798664
 C         -41.797028     -110.687820      -33.355938
 C         -41.413063     -112.185501      -33.357815
 H         -41.031719     -112.250961      -36.980240
 H         -42.498627     -112.805931      -36.245441
 H         -43.042912     -109.161285      -34.493439
 H         -43.793037     -110.910439      -34.259537
 H         -39.725368     -112.198250      -34.800819
 H         -40.657421     -113.627762      -34.794823
 H         -42.115772     -110.407585      -32.329990
 H         -40.885914     -110.093643      -33.620495
 H         -40.618500     -112.448311      -32.719444
 H         -42.332016     -112.920715      -33.325417
