20
 generated by VMD
 C         -50.543697     -131.883194      -47.126060
 N         -49.944317     -132.324188      -48.079971
 H         -48.587055     -131.380508      -43.686886
 H         -51.004284     -131.456909      -46.227116
 C         -48.748436     -132.279266      -43.056293
 C         -49.385250     -133.479630      -43.540737
 C         -48.553635     -132.154587      -41.493908
 C         -49.201698     -134.762650      -42.785622
 C         -48.391354     -133.534805      -40.717690
 C         -49.304806     -134.629044      -41.262352
 H         -49.065613     -133.481735      -44.553162
 H         -50.449589     -133.206863      -43.599510
 H         -47.636246     -131.667770      -41.422592
 H         -49.447285     -131.614914      -41.088963
 H         -48.236076     -135.191177      -43.065025
 H         -49.881119     -135.402832      -43.325897
 H         -48.719833     -133.551712      -39.599792
 H         -47.378822     -133.868576      -40.800961
 H         -49.037392     -135.578613      -40.805336
 H         -50.385803     -134.394455      -41.021156
