20
 generated by VMD
 C         -22.192507      -53.027939      -12.516207
 N         -22.951044      -52.485954      -13.146852
 H         -20.273403      -53.991043      -14.533019
 H         -21.245956      -53.547215      -11.842841
 C         -19.328947      -53.925976      -13.916999
 C         -18.943705      -52.484081      -13.580840
 C         -18.569107      -55.031483      -13.394867
 C         -17.543192      -52.367218      -14.105840
 C         -17.223938      -54.574703      -12.779385
 C         -16.503082      -53.346870      -13.437151
 H         -18.950508      -52.293831      -12.480984
 H         -19.614531      -51.780407      -14.067145
 H         -19.267305      -55.425381      -12.665081
 H         -18.315750      -55.787479      -14.171151
 H         -17.172836      -51.351147      -13.969605
 H         -17.515968      -52.493126      -15.186972
 H         -16.523586      -55.412445      -12.784240
 H         -17.362968      -54.336452      -11.728364
 H         -15.952459      -52.731514      -12.678361
 H         -15.711499      -53.627338      -14.223429
