20
 generated by VMD
 C         -21.212893      -52.242409       -9.732947
 N         -21.409733      -52.758373      -10.755708
 H         -19.696314      -50.019474      -12.380284
 H         -20.969646      -51.305264       -8.913469
 C         -18.631184      -50.245064      -12.652079
 C         -18.050114      -51.526146      -13.047908
 C         -17.487282      -49.330177      -12.247622
 C         -16.827005      -51.506302      -13.982052
 C         -16.313126      -49.198002      -13.260780
 C         -15.723512      -50.570721      -13.530592
 H         -18.760660      -52.160431      -13.561543
 H         -17.888788      -52.119293      -12.096025
 H         -17.819153      -48.306850      -12.051394
 H         -17.053164      -49.788605      -11.346334
 H         -17.246351      -51.105751      -14.934258
 H         -16.545929      -52.557018      -14.089528
 H         -15.525316      -48.525703      -13.001037
 H         -16.750084      -48.758442      -14.155930
 H         -14.909177      -50.544388      -14.270350
 H         -15.249553      -51.013676      -12.621527
