20
 generated by VMD
 C         -22.735462      -52.460835      -12.039785
 N         -23.735756      -52.409904      -11.436376
 H         -19.932301      -53.757423      -14.557620
 H         -21.795267      -52.366364      -12.210927
 C         -18.879700      -53.508808      -14.179008
 C         -18.290688      -52.204994      -14.537449
 C         -18.140453      -54.377701      -13.320248
 C         -16.778103      -52.147820      -14.435206
 C         -17.077175      -53.710499      -12.382534
 C         -16.214420      -52.661510      -13.056354
 H         -18.833387      -51.521835      -13.893392
 H         -18.564335      -51.905293      -15.599587
 H         -18.780104      -55.009933      -12.640048
 H         -17.621834      -55.015694      -14.030308
 H         -16.405045      -51.165401      -14.765907
 H         -16.405563      -52.863178      -15.154068
 H         -16.405756      -54.488293      -12.066243
 H         -17.568766      -53.348965      -11.432496
 H         -16.111383      -51.745312      -12.421193
 H         -15.210430      -53.129135      -13.286511
