20
 generated by VMD
 C         -67.942947     -179.419830      -58.719078
 N         -68.120605     -180.047134      -57.766930
 H         -66.665596     -176.644211      -59.417538
 H         -67.678055     -178.879700      -59.596661
 C         -65.843697     -175.962555      -59.812351
 C         -66.053078     -174.971420      -60.855152
 C         -64.393394     -176.423615      -59.652042
 C         -65.017967     -173.771622      -60.834671
 C         -63.530659     -175.102814      -59.432835
 C         -63.557842     -174.154022      -60.614506
 H         -67.136429     -174.428070      -60.977085
 H         -65.950188     -175.586334      -61.777039
 H         -64.425110     -177.059418      -58.747826
 H         -64.160591     -177.003403      -60.492451
 H         -65.418785     -172.949753      -60.116531
 H         -64.991402     -173.232010      -61.840328
 H         -62.497093     -175.337494      -59.217964
 H         -63.934494     -174.556274      -58.529724
 H         -63.059029     -173.167816      -60.485825
 H         -63.162548     -174.574493      -61.537094
