20
 generated by VMD
 C         -40.574402     -100.951744      -32.470249
 N         -41.234032     -100.939735      -31.549425
 H         -37.912922     -103.510506      -32.512814
 H         -39.696148     -100.945724      -33.178154
 C         -37.374981     -102.814369      -31.955275
 C         -36.163300     -102.484039      -32.871407
 C         -37.159946     -102.571220      -30.496029
 C         -35.257927     -101.349182      -32.347946
 C         -36.424965     -101.207390      -30.228283
 C         -35.088348     -101.262207      -30.860432
 H         -36.492622     -102.302727      -33.854576
 H         -35.568115     -103.402023      -32.907646
 H         -38.153996     -102.362442      -30.005157
 H         -36.657272     -103.387924      -30.049627
 H         -35.562603     -100.403603      -32.826141
 H         -34.333893     -101.627205      -32.813629
 H         -36.401276     -101.002777      -29.174433
 H         -37.176331     -100.435600      -30.707333
 H         -34.579929     -100.390457      -30.521088
 H         -34.667984     -102.200706      -30.492172
