20
 generated by VMD
 C         -38.715466     -111.814613      -35.934227
 N         -38.477394     -111.207314      -36.879868
 H         -40.606308     -114.901321      -34.952911
 H         -39.118790     -112.208633      -34.996250
 C         -41.538975     -114.417023      -35.318336
 C         -41.754353     -114.352654      -36.809071
 C         -42.228764     -113.321060      -34.533234
 C         -43.289097     -114.460732      -37.088753
 C         -43.736969     -113.188385      -34.748951
 C         -43.927845     -113.179199      -36.345970
 H         -41.305267     -115.292274      -37.322624
 H         -41.398304     -113.414276      -37.337223
 H         -42.174095     -113.537537      -33.461105
 H         -41.609760     -112.423927      -34.617661
 H         -43.750561     -115.440384      -36.656303
 H         -43.564297     -114.459648      -38.161362
 H         -43.980110     -112.227028      -34.328720
 H         -44.062626     -114.133537      -34.369499
 H         -44.973976     -113.240860      -36.595249
 H         -43.553913     -112.231880      -36.876781
