20
 generated by VMD
 C         -13.363272      -44.482071       -6.557739
 N         -14.006459      -44.070431       -5.758552
 H         -15.199405      -44.803951       -8.891608
 H         -14.373283      -43.971718      -10.106037
 C         -15.312697      -44.419643       -9.933822
 C         -16.440487      -43.389965       -9.914326
 C         -15.530238      -45.566376      -10.939384
 C         -16.845015      -42.955227      -11.306978
 C         -16.144020      -45.142498      -12.294750
 C         -17.325413      -44.180248      -12.086982
 H         -16.347195      -42.466011       -9.254893
 H         -17.257576      -43.919308       -9.387992
 H         -14.627610      -46.165260      -11.057489
 H         -16.209194      -46.308533      -10.558839
 H         -16.023069      -42.375008      -11.749483
 H         -17.677485      -42.263550      -11.200686
 H         -16.567135      -46.063465      -12.863865
 H         -15.353550      -44.773941      -12.946841
 H         -17.637814      -43.908607      -13.099800
 H         -18.109264      -44.628067      -11.536645
