20
 generated by VMD
 C         -69.087082     -180.490967      -60.871254
 N         -69.676376     -181.333923      -60.375210
 H         -67.339821     -177.836288      -59.611977
 H         -68.592621     -179.592331      -61.265343
 C         -66.347336     -177.637924      -59.904411
 C         -65.876205     -177.675720      -61.314613
 C         -65.336044     -177.146973      -58.820999
 C         -64.980103     -176.448059      -61.617485
 C         -64.357391     -176.055405      -59.258266
 C         -63.905602     -176.187729      -60.638672
 H         -66.735825     -177.602646      -62.007969
 H         -65.307091     -178.663315      -61.468197
 H         -65.862411     -176.812607      -57.973873
 H         -64.767990     -178.059586      -58.409088
 H         -65.389977     -175.522217      -61.896759
 H         -64.424881     -176.628830      -62.577435
 H         -63.431316     -176.127762      -58.615261
 H         -64.624924     -175.039124      -59.043835
 H         -63.353897     -175.334106      -60.899158
 H         -63.301144     -177.086609      -60.786469
