20
 generated by VMD
 C         -61.319122     -156.151260      -55.011135
 N         -60.451748     -155.868286      -55.656471
 H         -59.531261     -155.964737      -51.605217
 H         -62.164650     -156.251785      -54.405567
 C         -58.527817     -156.195282      -51.309551
 C         -57.731384     -155.050903      -50.854668
 C         -57.770500     -157.272232      -51.994164
 C         -56.333153     -155.418411      -50.330292
 C         -56.462261     -157.666656      -51.392838
 C         -55.628574     -156.421432      -51.219440
 H         -58.365498     -154.691757      -49.951031
 H         -57.593689     -154.209122      -51.582104
 H         -58.397472     -158.199982      -52.107224
 H         -57.551487     -156.991272      -53.043686
 H         -56.389740     -155.573822      -49.196655
 H         -55.650337     -154.508499      -50.258682
 H         -55.823444     -158.414688      -51.997852
 H         -56.480831     -158.151062      -50.388290
 H         -54.568844     -156.726822      -50.866917
 H         -55.467407     -156.031738      -52.200966
