20
 generated by VMD
 C         -22.238649      -67.426491      -16.164412
 N         -21.132204      -67.118004      -16.171259
 H         -23.962196      -65.383507      -17.937458
 H         -23.327124      -67.710358      -16.511866
 C         -24.409603      -66.161789      -18.604824
 C         -23.935469      -66.639793      -19.962170
 C         -25.901747      -66.400536      -18.150394
 C         -24.313061      -68.044708      -20.271570
 C         -26.466246      -67.661072      -18.770653
 C         -25.961071      -68.024178      -20.182224
 H         -22.849350      -66.277336      -20.118322
 H         -24.379574      -66.054459      -20.757246
 H         -26.065041      -66.347176      -17.068735
 H         -26.480806      -65.465950      -18.537855
 H         -23.834496      -68.718369      -19.618675
 H         -24.035009      -68.340477      -21.299517
 H         -27.545984      -67.649361      -18.805269
 H         -26.162703      -68.445580      -18.027754
 H         -26.311777      -69.049644      -20.320860
 H         -26.258135      -67.288353      -20.993681
