20
 generated by VMD
 C         -31.618525      -76.595917      -24.730848
 N         -31.896408      -76.951073      -25.762842
 H         -29.137806      -76.951485      -22.337763
 H         -31.792637      -76.278435      -23.622538
 C         -28.555725      -77.834457      -22.251509
 C         -27.475407      -78.030396      -23.312027
 C         -28.643465      -78.711189      -21.057453
 C         -26.215057      -78.346855      -22.575645
 C         -27.216057      -79.032745      -20.459743
 C         -26.378386      -79.518364      -21.620319
 H         -27.358736      -77.153450      -24.084883
 H         -27.752033      -79.018547      -23.770309
 H         -29.287483      -78.245575      -20.393223
 H         -29.155802      -79.596657      -21.495447
 H         -25.915241      -77.410248      -22.058861
 H         -25.359257      -78.548599      -23.198126
 H         -27.207973      -79.809830      -19.740292
 H         -26.703985      -78.169312      -19.978230
 H         -25.314964      -79.768173      -21.328205
 H         -26.684452      -80.496796      -22.126829
