20
 generated by VMD
 C         -47.745384     -136.588455      -45.936905
 N         -46.891209     -136.041183      -46.544418
 H         -51.498623     -135.304291      -45.746346
 H         -48.602940     -137.068771      -45.465790
 C         -51.608601     -136.255203      -45.316151
 C         -52.174973     -137.436493      -46.129860
 C         -51.838795     -136.186432      -43.877197
 C         -51.947956     -138.796143      -45.427330
 C         -51.618847     -137.665726      -43.137878
 C         -52.371395     -138.750320      -43.876152
 H         -51.693729     -137.453568      -47.087364
 H         -53.264515     -137.349304      -46.328518
 H         -51.108986     -135.525360      -43.413803
 H         -52.891438     -135.793564      -43.682423
 H         -50.893452     -139.100830      -45.545700
 H         -52.547592     -139.509659      -45.987804
 H         -51.939281     -137.544388      -42.151817
 H         -50.518970     -137.923721      -43.108200
 H         -51.878559     -139.633087      -43.441433
 H         -53.367802     -138.432877      -43.750832
