20
 generated by VMD
 C         -78.161545     -203.861755      -69.254593
 N         -79.119858     -204.180023      -69.816406
 H         -75.780975     -202.415695      -67.890869
 H         -77.445122     -203.570755      -68.558464
 C         -75.077324     -201.944061      -68.457970
 C         -75.094376     -200.525314      -68.804916
 C         -73.907127     -202.787537      -68.895454
 C         -74.814308     -200.288727      -70.279068
 C         -72.932739     -201.875977      -69.600273
 C         -73.638252     -201.138260      -70.849571
 H         -74.405640     -199.989655      -68.208435
 H         -76.114151     -200.051437      -68.682846
 H         -73.404747     -203.227570      -67.983917
 H         -74.252151     -203.694016      -69.514717
 H         -74.497749     -199.228821      -70.375069
 H         -75.723434     -200.442337      -70.894974
 H         -71.990746     -202.352097      -69.960014
 H         -72.444725     -201.225418      -68.823761
 H         -72.945946     -200.513062      -71.308899
 H         -73.969841     -201.878845      -71.563660
