20
 generated by VMD
 C         -57.948200     -161.936188      -56.211288
 N         -57.138954     -162.060562      -57.067486
 H         -59.558624     -164.152618      -55.582722
 H         -58.666489     -161.772751      -55.386070
 C         -60.419296     -164.458801      -54.879120
 C         -60.462387     -164.111359      -53.439949
 C         -61.765491     -164.571594      -55.543533
 C         -61.717129     -163.162872      -53.050423
 C         -62.784531     -163.388474      -55.317287
 C         -63.032280     -163.439774      -53.782806
 H         -59.534969     -163.671234      -53.090179
 H         -60.527607     -165.022537      -52.967869
 H         -61.644844     -164.759796      -56.603584
 H         -62.169689     -165.595596      -55.160599
 H         -61.437851     -162.181381      -53.357800
 H         -61.862225     -162.949936      -52.037174
 H         -63.600029     -163.721664      -55.917656
 H         -62.403191     -162.437744      -55.684612
 H         -63.763142     -162.701691      -53.612514
 H         -63.519958     -164.364655      -53.573399
