20
 generated by VMD
 C         -15.116914      -45.927757       -7.068233
 N         -14.639818      -46.823959       -6.586631
 H         -15.401052      -44.208717       -9.123466
 H         -14.620197      -44.596256      -10.680761
 C         -15.544561      -44.562218      -10.159355
 C         -16.441610      -43.521946      -10.974702
 C         -16.148134      -45.928932      -10.205435
 C         -16.704130      -43.821739      -12.402946
 C         -16.293634      -46.215641      -11.740589
 C         -17.216988      -45.230377      -12.557021
 H         -15.994161      -42.526958      -10.853225
 H         -17.356014      -43.482445      -10.384206
 H         -15.436561      -46.713882       -9.782722
 H         -17.135756      -45.956772       -9.676421
 H         -15.810539      -43.782684      -13.042204
 H         -17.374546      -43.083611      -12.850077
 H         -16.763683      -47.255859      -11.890040
 H         -15.313107      -46.272636      -12.197413
 H         -17.267117      -45.426716      -13.638901
 H         -18.207779      -45.304184      -12.221196
