20
 generated by VMD
 C         -46.946095     -124.939423      -38.111736
 N         -47.947910     -125.480049      -38.237316
 H         -44.738342     -122.068916      -37.650990
 H         -46.158745     -124.140839      -37.984219
 C         -44.675163     -122.295967      -38.763569
 C         -43.540421     -122.828842      -39.564068
 C         -45.728172     -121.497650      -39.449421
 C         -44.090195     -123.538094      -40.848969
 C         -46.118385     -122.153824      -40.805897
 C         -44.934143     -122.667740      -41.672371
 H         -43.082092     -123.632843      -39.004425
 H         -42.736458     -121.983276      -39.753540
 H         -46.629002     -121.219894      -38.808983
 H         -45.242828     -120.599045      -39.689751
 H         -44.545231     -124.461777      -40.541748
 H         -43.214138     -124.053078      -41.374802
 H         -46.927696     -121.535133      -41.250729
 H         -46.710167     -123.109848      -40.448586
 H         -45.319012     -123.206612      -42.546463
 H         -44.393097     -121.756798      -42.072681
