20
 generated by VMD
 C         -15.276822      -47.433449       -6.236943
 N         -15.431706      -46.756519       -5.354328
 H         -16.269598      -46.895393       -9.840987
 H         -15.100228      -46.676163      -11.170870
 C         -16.118402      -46.459171      -10.830180
 C         -16.426785      -44.941826      -10.918244
 C         -17.030283      -47.200413      -11.793807
 C         -16.339476      -44.339123      -12.328346
 C         -16.822815      -46.570175      -13.198237
 C         -17.128492      -45.075855      -13.375747
 H         -15.739831      -44.397472      -10.264215
 H         -17.490192      -44.742374      -10.639960
 H         -16.774279      -48.297512      -11.767288
 H         -18.067123      -47.046371      -11.505605
 H         -15.268554      -44.319447      -12.597162
 H         -16.696527      -43.289879      -12.236451
 H         -17.521301      -47.073524      -13.970255
 H         -15.829200      -46.804470      -13.539715
 H         -17.040739      -44.710499      -14.420995
 H         -18.187773      -44.846336      -13.195149
