20
 generated by VMD
 C         -30.969604      -92.763130      -26.190649
 N         -30.530643      -92.541389      -25.172995
 H         -32.501556      -90.022041      -26.485889
 H         -31.228954      -93.051910      -27.261919
 C         -33.223122      -90.357765      -27.213814
 C         -33.927574      -91.564537      -27.073469
 C         -33.414303      -89.527237      -28.473604
 C         -35.206875      -91.699959      -27.915920
 C         -34.620174      -89.682884      -29.311903
 C         -35.021667      -91.176216      -29.345718
 H         -34.242107      -92.038879      -26.141199
 H         -33.301250      -92.427101      -27.520462
 H         -33.135742      -88.491234      -28.234789
 H         -32.462589      -89.878754      -29.026537
 H         -35.868587      -90.974777      -27.370033
 H         -35.773258      -92.605927      -27.892385
 H         -34.408897      -89.133453      -30.251881
 H         -35.457253      -89.119087      -28.854881
 H         -35.961403      -91.436493      -29.877466
 H         -34.235340      -91.597328      -29.951553
