20
 generated by VMD
 C         -40.711124     -119.158180      -35.263260
 N         -39.642197     -118.644188      -35.147141
 H         -43.854626     -116.954262      -36.104515
 H         -41.461430     -119.888405      -35.299534
 C         -44.068832     -117.156815      -37.182049
 C         -43.015064     -117.478149      -38.203968
 C         -45.327663     -116.469238      -37.572273
 C         -43.674168     -118.406509      -39.172947
 C         -45.973640     -117.194031      -38.789825
 C         -44.944656     -117.628319      -39.776264
 H         -42.123070     -117.985649      -37.738239
 H         -42.474487     -116.634552      -38.696339
 H         -46.013187     -116.496994      -36.634972
 H         -45.073181     -115.405678      -37.748550
 H         -44.053143     -119.356621      -38.764084
 H         -43.058784     -118.785713      -40.025799
 H         -46.798313     -116.522232      -39.058945
 H         -46.357704     -118.084290      -38.321716
 H         -45.500858     -118.181038      -40.657211
 H         -44.487957     -116.751266      -40.203762
