20
 generated by VMD
 C         -31.092897      -79.617683      -26.160820
 N         -30.851561      -78.510185      -26.330433
 H         -28.689972      -81.408417      -25.348368
 H         -31.222475      -80.612976      -26.286062
 C         -28.891212      -81.759613      -24.415056
 C         -27.869555      -81.587418      -23.464695
 C         -29.924892      -82.762512      -24.251928
 C         -28.537363      -81.303047      -22.072739
 C         -30.679470      -82.407143      -22.919279
 C         -29.526110      -82.367516      -21.760906
 H         -27.169672      -80.750481      -23.562290
 H         -27.329296      -82.494949      -23.385738
 H         -30.545622      -82.531578      -25.134411
 H         -29.661381      -83.782280      -24.162348
 H         -28.984413      -80.270699      -22.147339
 H         -27.871250      -81.360886      -21.170898
 H         -31.350163      -83.206139      -22.529541
 H         -31.209263      -81.527092      -23.011892
 H         -29.907497      -82.086754      -20.799006
 H         -29.039431      -83.305206      -21.838482
