20
 generated by VMD
 C         -37.968338     -109.665993      -36.485561
 N         -37.438095     -108.867088      -35.829803
 H         -40.708336     -112.015160      -37.113567
 H         -38.668293     -110.410217      -36.966011
 C         -41.498905     -112.248726      -36.379875
 C         -42.346272     -113.557640      -36.435051
 C         -41.624477     -111.285301      -35.276558
 C         -42.862064     -114.075844      -35.083847
 C         -42.310246     -111.794540      -33.858227
 C         -43.305973     -112.925186      -34.155323
 H         -41.715633     -114.342064      -36.855091
 H         -43.039185     -113.364326      -37.189026
 H         -40.710617     -110.866211      -35.016224
 H         -42.218903     -110.449745      -35.426968
 H         -42.034016     -114.610939      -34.601921
 H         -43.599094     -114.805489      -35.183392
 H         -42.904278     -110.999954      -33.392895
 H         -41.502426     -112.103752      -33.156193
 H         -43.483059     -113.510361      -33.155525
 H         -44.222580     -112.506203      -34.490772
