20
 generated by VMD
 C          -2.540811       -8.664885       -0.086649
 N          -1.490237       -8.705995       -0.453820
 H          -3.020343       -9.691309        2.755697
 H          -1.834579      -10.798242        3.476821
 C          -2.899264      -10.789554        3.160063
 C          -3.220762      -11.802011        2.080165
 C          -3.822446      -10.969380        4.367183
 C          -3.277181      -13.259557        2.505528
 C          -3.922112      -12.435204        4.830003
 C          -4.276302      -13.388994        3.624925
 H          -2.533109      -11.731978        1.210957
 H          -4.215278      -11.544685        1.605720
 H          -3.648084      -10.329902        5.231600
 H          -4.896235      -10.812473        4.012097
 H          -2.249310      -13.613979        2.722186
 H          -3.618586      -13.830721        1.589012
 H          -4.762732      -12.505228        5.469910
 H          -3.034899      -12.835219        5.292203
 H          -4.329694      -14.366868        4.063082
 H          -5.284678      -13.213210        3.248635
