20
 generated by VMD
 C         -67.421494     -191.663864      -66.303947
 N         -66.971939     -191.288666      -67.282974
 H         -70.216431     -190.010071      -66.123695
 H         -67.646324     -192.058426      -65.343819
 C         -71.088142     -190.095703      -65.526321
 C         -72.025650     -191.215302      -65.713234
 C         -71.084221     -189.121429      -64.416588
 C         -73.305786     -190.975693      -65.000237
 C         -72.260498     -189.165192      -63.491711
 C         -73.074532     -190.423279      -63.470226
 H         -71.588676     -192.152039      -65.584473
 H         -72.236046     -191.076584      -66.807076
 H         -70.233971     -189.400513      -63.887360
 H         -70.989441     -188.100052      -64.840134
 H         -73.877533     -191.874939      -64.931877
 H         -73.858650     -190.222916      -65.610023
 H         -72.961731     -188.324890      -63.767181
 H         -71.912025     -189.039810      -62.484417
 H         -72.502884     -191.129623      -62.916401
 H         -74.201042     -190.368744      -63.052715
