20
 generated by VMD
 C         -12.098892      -37.524338       -7.627663
 N         -10.998272      -37.778641       -7.518070
 H         -12.539297      -41.303864       -8.524800
 H         -13.564313      -40.437183       -7.342303
 C         -13.528804      -40.988441       -8.267196
 C         -14.344051      -42.288368       -8.181017
 C         -14.057950      -40.094280       -9.388914
 C         -15.783175      -41.889996       -7.799006
 C         -15.560020      -39.795212       -9.191330
 C         -16.377165      -41.065472       -8.938375
 H         -13.935499      -42.996899       -7.481520
 H         -14.329491      -42.774754       -9.187534
 H         -13.515061      -39.192532       -9.498974
 H         -14.035006      -40.615982      -10.373420
 H         -15.832300      -41.303539       -6.865482
 H         -16.403765      -42.772408       -7.610365
 H         -15.975985      -39.163605       -9.987359
 H         -15.642382      -39.183178       -8.264171
 H         -17.347902      -40.796635       -8.602378
 H         -16.524282      -41.635998       -9.857547
