20
 generated by VMD
 C         -39.461266     -105.559044      -37.258041
 N         -40.520367     -105.115807      -37.022976
 H         -39.464931     -108.096977      -35.287064
 H         -38.534920     -106.168015      -37.325001
 C         -39.441116     -108.609863      -34.330570
 C         -38.350254     -108.474823      -33.351837
 C         -40.686470     -109.439728      -34.156429
 C         -38.923759     -108.541870      -31.903749
 C         -41.109051     -109.529343      -32.697132
 C         -39.933647     -109.543037      -31.732803
 H         -37.759644     -107.521484      -33.430061
 H         -37.660942     -109.317528      -33.397377
 H         -41.668255     -109.086807      -34.667671
 H         -40.466690     -110.408112      -34.690643
 H         -39.288872     -107.486153      -31.756052
 H         -38.036133     -108.686989      -31.192936
 H         -41.785431     -110.355438      -32.491596
 H         -41.799149     -108.679359      -32.408115
 H         -40.210304     -109.473915      -30.644661
 H         -39.373268     -110.516296      -31.833580
