20
 generated by VMD
 C         -47.735493     -124.761078      -38.221252
 N         -47.202503     -125.622765      -38.744854
 H         -45.296486     -123.160645      -37.780762
 H         -48.460304     -123.962402      -37.932999
 C         -44.956882     -122.807503      -38.733921
 C         -43.861252     -123.489853      -39.470665
 C         -45.768967     -121.790039      -39.608986
 C         -44.246445     -124.015953      -40.793633
 C         -46.064850     -122.205948      -40.978733
 C         -44.953175     -122.902702      -41.700974
 H         -43.492527     -124.318138      -38.895241
 H         -42.936581     -122.740669      -39.535942
 H         -46.691849     -121.424294      -39.000839
 H         -45.096008     -120.961090      -39.682785
 H         -44.808651     -124.978706      -40.771191
 H         -43.361389     -124.431740      -41.398273
 H         -46.587639     -121.476456      -41.576336
 H         -46.881718     -122.909889      -40.931969
 H         -45.256710     -123.284058      -42.712219
 H         -44.165447     -122.121216      -41.867805
