20
 generated by VMD
 C         -27.981913      -82.519127      -27.112038
 N         -27.223473      -83.328316      -26.784657
 H         -31.184029      -84.080826      -26.398100
 H         -28.653812      -81.775757      -27.248646
 C         -31.706755      -84.866684      -25.835581
 C         -31.379990      -84.722450      -24.329241
 C         -32.289856      -86.241600      -26.279951
 C         -32.363640      -85.527702      -23.466362
 C         -33.196201      -86.880150      -25.255285
 C         -32.574287      -86.920052      -23.888189
 H         -31.200068      -83.697411      -24.167282
 H         -30.467644      -85.343353      -24.193972
 H         -32.731865      -86.337044      -27.299246
 H         -31.438360      -86.897652      -26.304047
 H         -33.302063      -85.135551      -23.373854
 H         -31.997952      -85.406387      -22.414900
 H         -33.532017      -87.983871      -25.531931
 H         -34.120514      -86.343903      -25.080805
 H         -33.412411      -87.322830      -23.233110
 H         -31.692047      -87.655388      -23.887640
