20
 generated by VMD
 C         -69.270645     -194.606155      -64.974304
 N         -68.422058     -193.858444      -65.161453
 H         -71.022919     -194.370743      -67.024429
 H         -70.163513     -195.201721      -65.020676
 C         -71.911217     -193.701599      -67.057732
 C         -71.645401     -192.274979      -66.704308
 C         -73.348969     -194.120331      -67.192139
 C         -72.559525     -192.102402      -65.468246
 C         -74.312645     -193.026718      -67.040154
 C         -74.035576     -192.231247      -65.721428
 H         -71.933914     -191.520203      -67.520119
 H         -70.657150     -192.135788      -66.374123
 H         -73.516068     -194.551651      -68.233643
 H         -73.462685     -194.850571      -66.334930
 H         -72.414795     -191.126099      -65.060707
 H         -72.186813     -192.851028      -64.720680
 H         -75.371361     -193.394760      -66.893501
 H         -74.299057     -192.393066      -67.917473
 H         -74.407310     -191.132980      -65.903847
 H         -74.459923     -192.584305      -64.883240
