20
 generated by VMD
 C         -39.162403     -116.133583      -35.254917
 N         -39.411221     -115.399857      -34.399929
 H         -41.366680     -115.687263      -37.227551
 H         -38.604771     -116.749031      -36.021366
 C         -42.408981     -115.879639      -37.468235
 C         -43.031967     -115.558456      -38.857475
 C         -43.293297     -115.722435      -36.267395
 C         -44.265125     -116.369934      -38.942596
 C         -44.743862     -116.269585      -36.494476
 C         -45.369202     -116.014252      -37.913689
 H         -42.288662     -115.847008      -39.586975
 H         -43.345436     -114.566414      -39.011471
 H         -42.897392     -116.308258      -35.367832
 H         -43.508961     -114.663048      -36.156940
 H         -44.233044     -117.464973      -38.882969
 H         -44.655266     -116.161972      -39.955021
 H         -45.447533     -115.834541      -35.754990
 H         -44.615479     -117.343269      -36.392574
 H         -46.378441     -116.642128      -38.026306
 H         -45.815975     -115.010735      -37.927391
