20
 generated by VMD
 C         -22.743029      -52.331829      -11.860844
 N         -22.656294      -52.607685      -10.733316
 H         -19.916183      -52.600887      -14.017980
 H         -22.764112      -52.051647      -12.934457
 C         -18.860609      -52.499226      -13.836205
 C         -17.958689      -51.832497      -14.873481
 C         -18.354544      -53.345413      -12.734947
 C         -16.527075      -52.184700      -14.604718
 C         -17.155981      -52.719337      -12.110422
 C         -16.131552      -52.188141      -13.151622
 H         -18.076582      -50.683754      -14.878938
 H         -18.312754      -52.190239      -15.846848
 H         -19.150856      -53.363720      -12.005242
 H         -18.171341      -54.404308      -13.044673
 H         -15.841130      -51.632618      -15.263264
 H         -16.408602      -53.216908      -14.935060
 H         -16.543110      -53.497723      -11.466907
 H         -17.476997      -52.024136      -11.348090
 H         -15.974330      -51.128780      -12.859528
 H         -15.121756      -52.618397      -13.060687
