20
 generated by VMD
 C         -49.037777     -126.840424      -38.841919
 N         -49.993473     -127.344063      -38.398792
 H         -46.831890     -124.840050      -39.650311
 H         -48.140724     -126.486519      -39.329865
 C         -45.934792     -124.429703      -40.069633
 C         -44.587818     -124.899475      -39.882362
 C         -46.029938     -122.899925      -40.351471
 C         -43.808517     -124.690048      -41.134041
 C         -45.275181     -122.602943      -41.626328
 C         -43.797962     -123.156197      -41.492397
 H         -44.702969     -126.002602      -39.714687
 H         -44.229801     -124.372856      -38.973637
 H         -47.133820     -122.650520      -40.358654
 H         -45.573597     -122.388145      -39.553249
 H         -44.169643     -125.410912      -41.936356
 H         -42.761280     -125.041199      -40.927353
 H         -45.342285     -121.564278      -41.909966
 H         -45.730282     -123.191643      -42.434765
 H         -43.374416     -122.978455      -42.421715
 H         -43.191345     -122.594757      -40.763809
