20
 generated by VMD
 C         -38.364620     -112.806427      -36.234558
 N         -37.285309     -112.501198      -36.536160
 H         -41.283958     -114.789871      -34.717770
 H         -39.208191     -113.371414      -35.888374
 C         -42.161060     -114.605446      -35.380589
 C         -42.060749     -114.765053      -36.860310
 C         -43.344009     -114.006836      -34.753128
 C         -43.408325     -114.823036      -37.606422
 C         -44.677937     -114.290215      -35.511433
 C         -44.505558     -113.984360      -36.979942
 H         -41.408173     -115.723557      -36.937637
 H         -41.489586     -113.832886      -37.151051
 H         -43.498238     -114.317749      -33.699211
 H         -43.291107     -112.927170      -34.901363
 H         -43.750340     -115.914253      -37.506008
 H         -43.247234     -114.653748      -38.666859
 H         -45.357712     -113.572052      -34.921661
 H         -44.950424     -115.423485      -35.483917
 H         -45.490273     -114.113091      -37.514755
 H         -44.328697     -112.934845      -37.006226
