20
 generated by VMD
 C         -45.558781     -123.511726      -35.424984
 N         -46.141705     -124.538963      -35.385803
 H         -44.980892     -122.573196      -38.850941
 H         -45.063370     -122.528435      -35.681625
 C         -44.774239     -121.565628      -39.052059
 C         -43.305714     -121.389580      -39.631001
 C         -45.854786     -120.668930      -39.496906
 C         -43.391796     -121.124779      -41.138302
 C         -45.869144     -120.434860      -40.997726
 C         -44.461113     -120.076660      -41.519905
 H         -42.856670     -122.401970      -39.520760
 H         -42.740883     -120.573944      -39.189404
 H         -46.797401     -121.125099      -39.145031
 H         -45.667435     -119.762344      -39.076672
 H         -43.471382     -122.114204      -41.674545
 H         -42.521980     -120.582123      -41.399185
 H         -46.552284     -119.560516      -41.403900
 H         -46.238651     -121.385445      -41.432209
 H         -44.497478     -120.090691      -42.571270
 H         -44.225914     -119.013054      -41.411144
