20
 generated by VMD
 C         -40.109879     -101.110474      -31.960556
 N         -40.977299     -100.673965      -31.376190
 H         -37.894672     -103.183846      -32.639030
 H         -39.116173     -101.481689      -32.312572
 C         -37.278423     -102.583817      -31.992945
 C         -35.954964     -102.525803      -32.770161
 C         -37.233219     -102.337463      -30.619713
 C         -35.508320     -101.146385      -32.401733
 C         -36.482521     -101.028900      -30.199921
 C         -35.239090     -100.891441      -30.978050
 H         -36.107288     -102.663506      -33.818947
 H         -35.252823     -103.319984      -32.450481
 H         -38.241329     -102.081322      -30.218557
 H         -36.959080     -103.190872      -30.113382
 H         -36.137863     -100.305687      -32.914841
 H         -34.527683     -101.184219      -32.917603
 H         -36.303478     -100.985298      -29.148212
 H         -37.192230     -100.109154      -30.468719
 H         -34.700050      -99.939072      -30.817295
 H         -34.472038     -101.613747      -30.593643
