20
 generated by VMD
 C         -23.342438      -53.313896      -13.278617
 N         -23.297491      -52.650982      -14.169370
 H         -20.647814      -55.004894      -14.417723
 H         -23.348911      -53.718990      -12.139971
 C         -19.587494      -54.802734      -14.020706
 C         -18.993464      -53.417183      -13.954316
 C         -18.614094      -55.900597      -14.074390
 C         -17.818562      -53.326328      -13.024440
 C         -17.226713      -55.729485      -13.329810
 C         -16.710207      -54.294785      -13.379694
 H         -19.746435      -52.589680      -13.763196
 H         -18.703550      -53.172661      -15.006558
 H         -19.055170      -56.797119      -13.720087
 H         -18.382275      -56.096050      -15.160759
 H         -18.240290      -53.503025      -12.027906
 H         -17.425243      -52.307659      -13.025338
 H         -16.481865      -56.303421      -13.826156
 H         -17.372190      -56.108681      -12.279400
 H         -15.871794      -54.211346      -12.680183
 H         -16.339764      -54.081707      -14.407227
