20
 generated by VMD
 C         -20.867929      -52.245872       -9.624543
 N         -21.297720      -52.246727      -10.681329
 H         -19.242649      -49.689754      -11.779572
 H         -20.651726      -52.532681       -8.582461
 C         -18.273457      -49.927078      -12.162560
 C         -17.706120      -51.251919      -12.522629
 C         -17.243876      -48.828983      -12.154282
 C         -16.781828      -51.375645      -13.698881
 C         -16.640156      -48.789383      -13.550396
 C         -15.884759      -50.110836      -13.859138
 H         -18.432753      -52.047806      -12.596111
 H         -17.126410      -51.574253      -11.591110
 H         -17.745691      -47.899857      -11.833026
 H         -16.511208      -49.101322      -11.414618
 H         -17.296083      -51.484966      -14.639560
 H         -16.130739      -52.217739      -13.501552
 H         -15.815664      -47.990974      -13.678110
 H         -17.434982      -48.613571      -14.264671
 H         -15.378911      -49.982895      -14.799611
 H         -15.114932      -50.203091      -13.109605
