20
 generated by VMD
 C         -78.228600     -204.011612      -69.197205
 N         -79.099899     -204.067368      -69.907387
 H         -75.679100     -202.523315      -67.557968
 H         -77.362961     -203.952087      -68.592018
 C         -75.200554     -202.099869      -68.537224
 C         -75.290382     -200.596436      -68.876778
 C         -73.920044     -202.792343      -68.866760
 C         -74.823296     -200.331848      -70.348373
 C         -72.895782     -202.063751      -69.632057
 C         -73.493233     -201.118469      -70.742966
 H         -74.593925     -200.024734      -68.181244
 H         -76.290848     -200.200363      -68.752319
 H         -73.435173     -203.091949      -67.968575
 H         -74.228989     -203.624741      -69.531715
 H         -74.807396     -199.303864      -70.668533
 H         -75.610077     -200.697037      -71.063095
 H         -72.343597     -202.722504      -70.298523
 H         -72.293625     -201.550064      -68.900986
 H         -72.701637     -200.335175      -71.105782
 H         -73.720490     -201.708374      -71.680107
