20
 generated by VMD
 C          -4.046484      -20.641459        3.128279
 N          -4.567078      -19.685032        2.872467
 H          -5.137527      -19.057745       -0.330442
 H          -5.902905      -20.699074       -0.577325
 C          -5.921372      -19.629641       -0.847719
 C          -5.650487      -19.621130       -2.358711
 C          -7.338032      -19.118729       -0.473643
 C          -6.832831      -20.346336       -3.036327
 C          -8.434559      -19.742044       -1.270013
 C          -8.087772      -19.600477       -2.717885
 H          -4.691488      -20.108301       -2.696970
 H          -5.577374      -18.608961       -2.755709
 H          -7.554648      -19.293667        0.645051
 H          -7.354592      -18.011465       -0.522293
 H          -6.953919      -21.316124       -2.642101
 H          -6.640111      -20.420807       -4.096182
 H          -9.420243      -19.276249       -1.108159
 H          -8.593961      -20.779932       -1.075358
 H          -8.905822      -19.938885       -3.357186
 H          -8.079217      -18.500608       -2.876812
