20
 generated by VMD
 C         -31.648647      -75.787842      -23.924667
 N         -31.069439      -76.234589      -24.801050
 H         -29.608442      -78.451767      -22.441778
 H         -32.434921      -75.403969      -23.135836
 C         -28.548960      -78.264687      -22.102995
 C         -27.606052      -78.255493      -23.181513
 C         -28.135187      -78.069054      -20.661764
 C         -26.306229      -77.569916      -22.961597
 C         -26.729252      -77.507843      -20.423859
 C         -25.808292      -77.814156      -21.566269
 H         -28.074015      -77.848900      -24.144468
 H         -27.386051      -79.312172      -23.202349
 H         -28.929310      -77.447800      -20.161922
 H         -28.188177      -79.065720      -20.340376
 H         -26.474482      -76.481720      -22.960104
 H         -25.537222      -77.867630      -23.720812
 H         -26.352598      -77.800003      -19.520151
 H         -26.753094      -76.459915      -20.302752
 H         -24.830372      -77.275238      -21.338491
 H         -25.452465      -78.826591      -21.505836
