20
 generated by VMD
 C         -19.649517      -62.130230      -17.675444
 N         -19.985685      -62.033855      -16.576294
 H         -22.169519      -64.434669      -16.735065
 H         -19.511122      -62.463280      -18.702591
 C         -23.100649      -64.782227      -17.099886
 C         -23.408512      -64.119484      -18.467527
 C         -24.172976      -65.303978      -16.084665
 C         -24.451414      -65.085159      -19.046553
 C         -25.294924      -66.006271      -16.835190
 C         -25.710678      -65.241058      -18.043486
 H         -22.539988      -64.156372      -19.098150
 H         -23.728764      -63.093845      -18.283430
 H         -23.724709      -66.077156      -15.551373
 H         -24.635889      -64.466820      -15.474103
 H         -23.986071      -66.036583      -19.384991
 H         -24.679064      -64.623024      -20.036638
 H         -26.125927      -66.260132      -16.159811
 H         -24.893211      -67.004707      -17.097044
 H         -26.595022      -65.648003      -18.516439
 H         -26.072937      -64.136925      -17.829395
