20
 generated by VMD
 C         -40.736820     -100.165443      -29.992479
 N         -40.649311     -100.302902      -28.837303
 H         -37.491840      -99.895699      -30.766108
 H         -40.890430      -99.813957      -31.054300
 C         -36.373367      -99.675392      -30.802177
 C         -35.988541      -99.654839      -32.255314
 C         -35.335617      -99.696587      -29.716967
 C         -34.986294      -98.506935      -32.537384
 C         -34.372711      -98.550499      -29.921637
 C         -33.775063      -98.509018      -31.522614
 H         -36.986820      -99.521049      -32.780254
 H         -35.625561     -100.618568      -32.585411
 H         -35.860607      -99.549706      -28.709307
 H         -34.837173     -100.677589      -29.678038
 H         -35.269989      -97.442581      -32.550438
 H         -34.499039      -98.632767      -33.541676
 H         -33.540100      -98.636086      -29.217363
 H         -34.927505      -97.577110      -29.840368
 H         -33.103889      -97.572701      -31.579836
 H         -33.234959      -99.422050      -31.688114
