20
 generated by VMD
 C         -13.933681      -43.421860       -6.629176
 N         -13.183070      -43.714725       -5.841536
 H         -15.007695      -45.145329       -8.998292
 H         -14.370019      -43.951756      -10.071960
 C         -15.301812      -44.497093       -9.859549
 C         -16.427889      -43.548462       -9.532317
 C         -15.432702      -45.418034      -11.099597
 C         -16.774059      -42.804638      -10.827991
 C         -16.001591      -44.666000      -12.297650
 C         -17.210005      -43.849922      -11.882757
 H         -16.181862      -42.786171       -8.764570
 H         -17.225113      -44.060635       -9.024262
 H         -14.463238      -45.964767      -11.312163
 H         -16.123663      -46.246216      -10.823867
 H         -15.879964      -42.266644      -11.176331
 H         -17.532934      -42.041927      -10.717903
 H         -16.381435      -45.357899      -13.075334
 H         -15.271366      -44.034489      -12.777520
 H         -17.627766      -43.379284      -12.847092
 H         -18.023708      -44.465088      -11.406655
