20
 generated by VMD
 C         -58.728058     -158.845520      -58.202599
 N         -58.725639     -159.768036      -57.404472
 H         -58.903114     -160.881805      -54.815941
 H         -58.667732     -158.031738      -58.920689
 C         -59.408260     -161.276016      -53.922951
 C         -58.731777     -161.663330      -52.663017
 C         -60.675030     -162.043884      -54.175625
 C         -59.756950     -161.601105      -51.596210
 C         -61.622578     -161.800125      -53.026550
 C         -61.132812     -162.277054      -51.735519
 H         -57.868664     -161.018509      -52.350296
 H         -58.175133     -162.630783      -52.830612
 H         -61.213997     -161.767166      -55.050442
 H         -60.402889     -163.179871      -54.296314
 H         -59.825069     -160.607498      -51.335217
 H         -59.317127     -162.193802      -50.740646
 H         -62.561367     -162.361526      -53.288902
 H         -61.828682     -160.701126      -53.092411
 H         -61.750225     -162.076904      -50.855946
 H         -60.936790     -163.401718      -51.642452
