20
 generated by VMD
 C         -57.801758     -165.457092      -56.457348
 N         -57.704018     -166.575867      -56.345795
 H         -60.708691     -164.980576      -54.131378
 H         -57.826759     -164.433060      -56.642174
 C         -61.494282     -165.228470      -54.803192
 C         -61.790489     -166.668106      -55.208485
 C         -62.238434     -164.026031      -55.527512
 C         -63.329647     -166.829910      -55.356556
 C         -63.713394     -164.320282      -55.766663
 C         -63.871418     -165.726837      -56.329632
 H         -61.413795     -167.201279      -54.377579
 H         -61.170456     -166.800980      -56.153492
 H         -62.135014     -163.074463      -54.939667
 H         -61.643410     -163.831116      -56.334869
 H         -63.839233     -166.739716      -54.449810
 H         -63.622482     -167.769547      -55.796230
 H         -64.292427     -163.594925      -56.606949
 H         -64.279518     -164.309601      -54.715637
 H         -64.905228     -165.981476      -56.572594
 H         -63.391796     -165.979263      -57.307930
