20
 generated by VMD
 C         -51.338940     -145.578140      -44.059631
 N         -51.310635     -146.434219      -44.836960
 H         -53.171989     -144.868729      -46.673740
 H         -51.505959     -144.830551      -43.264973
 C         -53.714191     -144.322159      -47.454262
 C         -52.768192     -144.228775      -48.634594
 C         -54.793335     -143.297256      -47.332684
 C         -53.408833     -143.870056      -49.985126
 C         -55.440849     -142.896729      -48.666542
 C         -54.401897     -142.664047      -49.840984
 H         -52.174950     -145.063080      -48.625725
 H         -52.219421     -143.336960      -48.269184
 H         -55.550892     -143.772476      -46.602547
 H         -54.476166     -142.349518      -46.906609
 H         -54.060299     -144.738403      -50.228859
 H         -52.575706     -143.807205      -50.745285
 H         -56.067097     -142.085297      -48.440731
 H         -56.274811     -143.562683      -49.011311
 H         -54.953938     -142.396103      -50.735939
 H         -53.773212     -141.881775      -49.621407
