20
 generated by VMD
 C         -22.800297      -55.454533      -17.029720
 N         -23.070072      -54.419712      -17.320024
 H         -20.241743      -55.951477      -15.385410
 H         -22.112150      -56.305458      -16.819040
 C         -20.097126      -56.858192      -14.719568
 C         -20.623346      -57.163494      -13.309739
 C         -18.778280      -57.617664      -14.996130
 C         -20.903002      -58.638664      -13.148841
 C         -19.147467      -59.150448      -14.924746
 C         -19.793482      -59.690563      -13.669161
 H         -21.482027      -56.562626      -12.979198
 H         -19.719461      -57.002327      -12.628849
 H         -18.434473      -57.234730      -15.984260
 H         -18.072277      -57.373528      -14.171590
 H         -21.788847      -58.915100      -13.686149
 H         -21.060478      -58.881962      -12.074450
 H         -18.330864      -59.815575      -15.154447
 H         -19.847324      -59.348190      -15.769149
 H         -20.230600      -60.653080      -13.821088
 H         -19.100121      -59.681183      -12.831888
