20
 generated by VMD
 C          -2.751932       -9.610083        0.107358
 N          -1.904007       -8.943782        0.241013
 H          -2.179271      -11.429298        3.085057
 H          -2.778023      -12.389043        4.253016
 C          -2.844015      -12.273792        3.166795
 C          -2.580011      -13.562447        2.466551
 C          -4.175101      -11.708191        2.768955
 C          -3.650743      -14.542698        2.908755
 C          -5.318050      -12.659288        3.080311
 C          -5.024189      -14.044209        2.527220
 H          -1.567068      -13.876092        2.770199
 H          -2.541589      -13.484400        1.347664
 H          -4.344434      -10.705646        3.272929
 H          -4.065193      -11.580067        1.664185
 H          -3.591172      -14.648574        4.025510
 H          -3.391245      -15.591409        2.565433
 H          -6.272969      -12.354177        2.732710
 H          -5.437565      -12.783706        4.132192
 H          -5.730277      -14.664221        3.078254
 H          -5.228518      -14.145865        1.431327
