20
 generated by VMD
 C         -67.520355     -179.676590      -58.450893
 N         -68.527473     -180.219055      -58.416576
 H         -67.231583     -176.460846      -59.914616
 H         -66.563988     -179.133942      -58.409061
 C         -66.097740     -176.072098      -60.048447
 C         -66.030701     -175.141281      -61.232040
 C         -64.836891     -176.533432      -59.337574
 C         -64.944427     -174.064896      -61.033951
 C         -63.658066     -175.561234      -59.421570
 C         -63.616146     -174.534973      -60.518372
 H         -66.963455     -174.685028      -61.313011
 H         -65.814354     -175.501511      -62.274700
 H         -65.194374     -176.770279      -58.360973
 H         -64.675194     -177.456497      -59.911053
 H         -65.309807     -173.220383      -60.293278
 H         -64.808006     -173.509766      -62.014385
 H         -62.634930     -176.026337      -59.341507
 H         -63.885796     -174.904190      -58.558418
 H         -62.850178     -173.758362      -60.438793
 H         -63.190739     -174.975739      -61.456520
