20
 generated by VMD
 C         -31.188072      -75.638268      -21.510683
 N         -32.331329      -75.390411      -21.478354
 H         -27.857662      -75.565376      -19.915611
 H         -30.207977      -75.888710      -21.289511
 C         -27.116070      -75.388176      -20.672407
 C         -26.581842      -76.555801      -21.559528
 C         -26.145346      -74.221558      -20.500912
 C         -25.810360      -76.062126      -22.820986
 C         -25.431190      -73.833504      -21.751797
 C         -24.746941      -74.917328      -22.510366
 H         -27.385006      -77.136543      -21.927382
 H         -25.952078      -77.113922      -20.808403
 H         -26.675388      -73.301918      -20.128719
 H         -25.492884      -74.669212      -19.842300
 H         -26.509644      -75.642998      -23.541536
 H         -25.271988      -76.865471      -23.282764
 H         -24.724541      -73.054001      -21.398693
 H         -26.094601      -73.235298      -22.399916
 H         -24.243103      -74.586113      -23.448946
 H         -23.794708      -75.205460      -21.925501
