20
 generated by VMD
 C         -30.618309      -92.823181      -26.267710
 N         -31.042011      -92.522713      -25.208126
 H         -32.513420      -90.384644      -26.510897
 H         -30.216063      -92.947243      -27.266815
 C         -33.327900      -90.549240      -27.209208
 C         -34.134159      -91.885414      -27.196526
 C         -33.138641      -89.765701      -28.537550
 C         -35.422615      -91.772049      -28.042406
 C         -34.485325      -89.693573      -29.216711
 C         -35.109985      -91.153542      -29.361532
 H         -34.529255      -92.047836      -26.162205
 H         -33.368652      -92.735825      -27.437208
 H         -32.862038      -88.710808      -28.347303
 H         -32.409092      -90.348923      -29.190418
 H         -36.236320      -91.344795      -27.369881
 H         -35.677105      -92.760048      -28.315489
 H         -34.309818      -89.425453      -30.235386
 H         -35.265751      -89.082237      -28.808155
 H         -36.061962      -91.325523      -29.817011
 H         -34.368889      -91.721306      -29.866013
