20
 generated by VMD
 C         -68.130623     -179.248627      -58.334496
 N         -67.222321     -178.750275      -57.840565
 H         -65.991890     -176.450119      -58.955791
 H         -69.056091     -179.602234      -58.823204
 C         -65.432388     -175.728912      -59.494591
 C         -66.030952     -174.746674      -60.405533
 C         -63.874657     -176.001785      -59.621284
 C         -65.266716     -173.432327      -60.304756
 C         -63.189590     -174.630356      -59.703140
 C         -63.862469     -173.593277      -60.624084
 H         -67.102180     -174.522385      -60.145283
 H         -65.915787     -175.085770      -61.388653
 H         -63.509155     -176.732330      -58.815277
 H         -63.824585     -176.531311      -60.614384
 H         -65.327049     -173.003235      -59.273582
 H         -65.798889     -172.637909      -60.820755
 H         -62.178402     -174.821121      -60.000740
 H         -63.084770     -174.152145      -58.682144
 H         -63.394936     -172.570892      -60.611958
 H         -63.926273     -173.869095      -61.639084
