20
 generated by VMD
 C         -33.610847      -96.451729      -25.675428
 N         -34.532917      -96.519882      -26.388910
 H         -35.036766      -94.150330      -27.293993
 H         -32.743134      -96.143463      -24.969370
 C         -34.930248      -94.183556      -28.376526
 C         -35.898830      -94.747513      -29.333836
 C         -33.600853      -93.823303      -28.943821
 C         -36.073128      -93.855751      -30.558289
 C         -33.756516      -93.027916      -30.235258
 C         -34.803509      -93.516289      -31.253683
 H         -36.809361      -94.722572      -28.716043
 H         -35.719471      -95.808235      -29.646545
 H         -32.875702      -93.347527      -28.318951
 H         -33.164761      -94.823418      -29.187084
 H         -36.589306      -92.860405      -30.336615
 H         -36.712845      -94.329292      -31.290873
 H         -32.901508      -92.725685      -30.824717
 H         -34.119080      -92.051277      -29.822903
 H         -34.974285      -92.627960      -32.003830
 H         -34.152603      -94.321831      -31.756655
