20
 generated by VMD
 C         -78.161964     -203.628586      -69.412544
 N         -79.030098     -204.324646      -69.605568
 H         -75.668076     -202.321594      -67.865761
 H         -77.320450     -202.979874      -69.146141
 C         -74.840584     -201.755127      -68.259239
 C         -75.110115     -200.339035      -68.699112
 C         -73.742096     -202.658722      -68.784256
 C         -74.822128     -200.056610      -70.227417
 C         -72.970016     -201.875610      -69.796524
 C         -73.723244     -201.073227      -70.793968
 H         -74.489128     -199.646774      -68.028633
 H         -76.129303     -200.107483      -68.434067
 H         -73.135788     -203.180298      -68.045403
 H         -74.276489     -203.442841      -69.261925
 H         -74.527054     -199.000549      -70.365562
 H         -75.743530     -200.270935      -70.765266
 H         -72.416451     -202.596100      -70.430847
 H         -72.282646     -201.295425      -69.172829
 H         -72.834564     -200.577347      -71.271553
 H         -74.053970     -201.878387      -71.533089
