20
 generated by VMD
 C         -12.660849      -27.409843       -4.695177
 N         -13.584161      -28.021553       -4.617912
 H         -10.576338      -29.979891       -2.609986
 H         -10.587298      -28.471214       -3.274156
 C          -9.916556      -29.274826       -3.138657
 C          -9.499753      -29.987120       -4.408131
 C          -8.794507      -28.678205       -2.361524
 C          -8.510297      -29.168169       -5.229571
 C          -7.988379      -27.764839       -3.214876
 C          -7.447751      -28.527880       -4.430087
 H         -10.429257      -30.280670       -4.959083
 H          -9.040305      -30.915123       -4.251273
 H          -9.221848      -28.187737       -1.455117
 H          -8.111992      -29.473503       -1.904982
 H          -9.073356      -28.441153       -5.763650
 H          -8.019564      -29.775936       -5.958588
 H          -7.198840      -27.297459       -2.552349
 H          -8.572142      -26.923882       -3.557559
 H          -6.884315      -27.803085       -5.019554
 H          -6.766906      -29.352343       -4.015652
