20
 generated by VMD
 C         -70.776817     -181.465195      -64.218826
 N         -70.379684     -182.351868      -63.548386
 H         -68.413399     -181.093018      -61.082783
 H         -71.115555     -180.664139      -64.823586
 C         -67.454803     -180.839691      -60.730453
 C         -66.365753     -181.785873      -60.452541
 C         -67.386841     -179.278976      -60.462929
 C         -64.901688     -181.115952      -60.862488
 C         -65.912170     -178.789291      -60.831276
 C         -64.785034     -179.692139      -60.332336
 H         -66.565773     -182.712723      -60.998276
 H         -66.587547     -182.146454      -59.396809
 H         -68.133919     -178.743057      -61.090714
 H         -67.713814     -179.153900      -59.324963
 H         -64.823288     -181.166031      -62.003536
 H         -64.159599     -181.801743      -60.365578
 H         -65.701675     -177.769363      -60.503277
 H         -65.911476     -178.884201      -61.939644
 H         -63.848503     -179.395142      -60.573612
 H         -64.796638     -179.613846      -59.217442
