20
 generated by VMD
 C         -50.021561     -130.775757      -45.634144
 N         -50.852112     -129.891754      -45.708019
 H         -47.312553     -132.149078      -44.226387
 H         -49.321079     -131.593658      -45.494518
 C         -48.152943     -132.191788      -43.588028
 C         -48.557491     -133.455612      -42.797871
 C         -48.430351     -130.997452      -42.818195
 C         -47.932079     -133.521942      -41.352661
 C         -47.806255     -130.999924      -41.396564
 C         -48.314030     -132.238800      -40.640751
 H         -48.175175     -134.299011      -43.401760
 H         -49.635094     -133.596542      -42.640827
 H         -47.869732     -130.212677      -43.398663
 H         -49.489574     -130.849136      -42.729931
 H         -46.870907     -133.575699      -41.545170
 H         -48.285839     -134.447769      -40.884510
 H         -48.160999     -130.262283      -40.712399
 H         -46.665989     -131.035721      -41.318726
 H         -47.913284     -132.154068      -39.599258
 H         -49.381756     -132.245819      -40.472488
