20
 generated by VMD
 C         -47.497833     -137.975067      -46.061005
 N         -47.273849     -137.347748      -47.052345
 H         -50.368088     -137.216476      -44.354538
 H         -47.621429     -138.538116      -45.156418
 C         -51.314747     -137.618408      -44.747593
 C         -51.320526     -138.367859      -46.024998
 C         -52.609165     -137.410522      -44.057190
 C         -52.278782     -139.523529      -46.026852
 C         -53.426811     -138.668930      -43.970940
 C         -53.620544     -139.243439      -45.452377
 H         -50.352871     -138.746872      -46.244061
 H         -51.594143     -137.492050      -46.701359
 H         -52.295380     -137.270111      -43.038925
 H         -53.214386     -136.620270      -44.374367
 H         -51.827812     -140.329254      -45.464466
 H         -52.432384     -139.961914      -47.041084
 H         -54.396095     -138.477859      -43.468235
 H         -52.949890     -139.289017      -43.300266
 H         -54.248013     -140.060852      -45.409969
 H         -54.153503     -138.557251      -46.089771
