20
 generated by VMD
 C         -60.278477     -156.274231      -56.060623
 N         -60.769020     -155.310623      -55.781925
 H         -59.780182     -157.984161      -53.193268
 H         -59.789764     -157.250549      -56.145939
 C         -58.906506     -157.891922      -52.446491
 C         -58.088139     -156.605026      -52.388161
 C         -58.213902     -159.188461      -51.917538
 C         -57.208263     -156.417313      -51.135471
 C         -57.412853     -158.862259      -50.522346
 C         -56.427052     -157.680389      -50.711391
 H         -58.707973     -155.682632      -52.430733
 H         -57.440609     -156.511337      -53.322834
 H         -58.923038     -159.961304      -51.637875
 H         -57.614166     -159.616486      -52.708546
 H         -58.086151     -156.190903      -50.356647
 H         -56.497963     -155.583801      -51.214340
 H         -56.742199     -159.722000      -50.323029
 H         -58.170261     -158.655304      -49.672089
 H         -55.993134     -157.531082      -49.621502
 H         -55.777416     -157.975189      -51.477642
