20
 generated by VMD
 C         -28.293770      -84.001381      -27.194836
 N         -27.521183      -83.438568      -26.564865
 H         -31.916428      -84.184395      -26.103209
 H         -28.876198      -84.613251      -27.833818
 C         -31.671455      -85.216904      -25.763386
 C         -31.438858      -85.430717      -24.209627
 C         -32.024006      -86.508186      -26.547142
 C         -32.745293      -85.892174      -23.698015
 C         -33.247478      -87.135979      -25.905573
 C         -33.154266      -87.182281      -24.428246
 H         -31.229759      -84.499855      -23.645964
 H         -30.694515      -86.251053      -24.130318
 H         -32.102127      -86.386055      -27.626221
 H         -31.211515      -87.281670      -26.417137
 H         -33.586327      -85.204292      -23.815817
 H         -32.644264      -86.097992      -22.690735
 H         -33.243580      -88.103806      -26.324051
 H         -34.143669      -86.597885      -26.355604
 H         -34.212704      -87.403557      -24.145432
 H         -32.495316      -87.861084      -23.911924
