20
 generated by VMD
 C         -12.012311      -41.397820       -7.635957
 N         -11.723105      -40.676502       -6.828303
 H         -13.959771      -40.776180       -8.270469
 H         -15.025663      -40.099380       -9.436833
 C         -14.749442      -41.087879       -8.965908
 C         -15.913078      -41.672096       -8.105396
 C         -14.190557      -41.981354      -10.064385
 C         -17.030615      -42.207409       -9.007075
 C         -15.364840      -42.463924      -10.892261
 C         -16.543348      -43.079140      -10.168352
 H         -16.341719      -40.871269       -7.489485
 H         -15.463167      -42.439888       -7.386863
 H         -13.467761      -41.384693      -10.640087
 H         -13.687518      -42.926559       -9.597359
 H         -17.615194      -41.359993       -9.466934
 H         -17.614914      -42.899963       -8.363405
 H         -15.024136      -43.274376      -11.631441
 H         -15.740316      -41.697639      -11.520680
 H         -17.340557      -43.327782      -10.855964
 H         -16.255636      -44.099220       -9.841603
