20
 generated by VMD
 C         -58.223160     -150.932724      -49.182659
 N         -58.354355     -151.994553      -48.648045
 H         -55.514469     -149.886475      -47.796028
 H         -58.093159     -149.951309      -49.560425
 C         -55.284271     -149.476852      -48.751801
 C         -54.294273     -150.365479      -49.421406
 C         -55.096375     -148.086487      -48.987694
 C         -54.229168     -149.973038      -50.942890
 C         -54.823769     -147.709030      -50.391869
 C         -53.813637     -148.480560      -51.098457
 H         -54.700680     -151.385178      -49.398930
 H         -53.326359     -150.255325      -48.995186
 H         -55.915321     -147.525909      -48.537212
 H         -54.159317     -147.833374      -48.397900
 H         -55.203423     -150.223969      -51.374886
 H         -53.450008     -150.654587      -51.295422
 H         -54.511326     -146.716949      -50.478027
 H         -55.684261     -147.847534      -51.043285
 H         -53.654091     -148.184189      -52.100594
 H         -52.872276     -148.292999      -50.535595
