20
 generated by VMD
 C         -67.466919     -191.663895      -66.304893
 N         -66.906975     -191.378906      -67.306343
 H         -70.231010     -190.083160      -66.223900
 H         -67.960930     -192.174377      -65.507370
 C         -71.054970     -190.069611      -65.540245
 C         -72.020226     -191.152679      -65.801384
 C         -71.061684     -189.160965      -64.352684
 C         -73.310623     -191.024307      -64.965446
 C         -72.360970     -189.149185      -63.506786
 C         -73.071259     -190.503937      -63.516830
 H         -71.503487     -192.079361      -65.481941
 H         -72.302689     -191.270569      -66.915001
 H         -70.242249     -189.352966      -63.692078
 H         -70.912979     -188.127518      -64.725868
 H         -73.919075     -191.904999      -64.962082
 H         -73.995438     -190.311325      -65.452782
 H         -73.060379     -188.329895      -63.763527
 H         -72.129471     -188.828674      -62.499516
 H         -72.540024     -191.183823      -62.837360
 H         -74.137970     -190.308197      -63.012413
