20
 generated by VMD
 C         -41.547634     -119.356186      -34.572739
 N         -41.017811     -119.775452      -35.491756
 H         -43.366432     -118.508133      -36.679569
 H         -41.849186     -118.833588      -33.739487
 C         -43.736629     -117.964005      -37.486702
 C         -42.947468     -118.068985      -38.761036
 C         -45.163605     -117.465088      -37.634239
 C         -43.784233     -118.611130      -39.955399
 C         -45.934975     -117.854736      -38.880688
 C         -45.039791     -117.789711      -40.087498
 H         -42.146420     -118.781532      -38.512463
 H         -42.497784     -117.088898      -39.120731
 H         -45.708637     -117.669838      -36.686470
 H         -45.068317     -116.301735      -37.713512
 H         -44.028206     -119.703484      -39.866787
 H         -43.032234     -118.467995      -40.821323
 H         -46.883942     -117.301826      -38.774300
 H         -46.225742     -118.887596      -38.700588
 H         -45.624893     -118.077202      -40.920567
 H         -44.738674     -116.767807      -40.276344
