20
 generated by VMD
 C         -60.098946     -172.079056      -55.261314
 N         -59.824368     -173.091431      -54.819813
 H         -63.005104     -170.283035      -56.402576
 H         -60.495735     -171.102402      -55.553921
 C         -63.407570     -169.554565      -57.066093
 C         -62.791096     -168.302322      -57.428413
 C         -64.871002     -169.602036      -57.126118
 C         -63.143196     -167.816696      -58.771576
 C         -65.412636     -169.185669      -58.495647
 C         -64.684288     -167.841400      -58.956676
 H         -61.743950     -168.443008      -57.518539
 H         -62.888153     -167.433502      -56.610744
 H         -65.328979     -170.551682      -56.936840
 H         -65.422264     -168.947769      -56.389484
 H         -62.681557     -168.451218      -59.569210
 H         -62.687069     -166.838837      -58.864445
 H         -66.505447     -169.209213      -58.586662
 H         -65.176094     -169.983841      -59.156662
 H         -64.981720     -167.707077      -59.974312
 H         -65.203644     -167.073761      -58.321671
