20
 generated by VMD
 C         -40.514179     -116.983078      -34.482105
 N         -39.464966     -116.505623      -34.654152
 H         -41.536175     -115.923088      -37.857040
 H         -41.311508     -117.756897      -34.207253
 C         -42.537651     -116.287346      -37.969437
 C         -43.133694     -116.038177      -39.304466
 C         -43.338814     -116.127106      -36.647923
 C         -44.427807     -116.865555      -39.418171
 C         -44.742725     -116.842331      -36.829185
 C         -45.390297     -116.645065      -38.170296
 H         -42.427708     -116.274597      -40.088593
 H         -43.406025     -114.992561      -39.228310
 H         -42.832550     -116.415298      -35.776131
 H         -43.470871     -115.035172      -36.643417
 H         -44.118877     -117.973801      -39.385735
 H         -44.952507     -116.728210      -40.385265
 H         -45.363144     -116.395569      -36.103035
 H         -44.592655     -117.777374      -36.456326
 H         -46.330643     -117.147499      -38.361755
 H         -45.796631     -115.653564      -38.226234
