20
 generated by VMD
 C         -12.424631      -28.423447       -5.789634
 N         -13.312550      -27.742399       -5.811451
 H         -11.804002      -31.663416       -4.072775
 H         -11.208500      -30.131905       -4.850288
 C         -10.901641      -31.027895       -4.214699
 C          -9.810078      -31.700064       -5.063154
 C         -10.340411      -30.338724       -2.909206
 C          -8.527722      -30.906288       -5.261415
 C          -9.137571      -29.438410       -3.245258
 C          -7.965466      -30.165485       -3.995760
 H         -10.358433      -31.981293       -5.913990
 H          -9.481938      -32.615936       -4.484754
 H         -11.138403      -29.734785       -2.371329
 H         -10.020327      -31.178776       -2.266184
 H          -8.768108      -30.136232       -6.039006
 H          -7.727629      -31.585531       -5.578086
 H          -8.721217      -28.989889       -2.368440
 H          -9.524480      -28.555899       -3.841170
 H          -7.253267      -29.351606       -4.329049
 H          -7.605111      -30.897202       -3.277208
