20
 generated by VMD
 C         -29.518644      -87.974724      -24.976997
 N         -28.929201      -88.326752      -25.890162
 H         -31.223438      -89.180893      -27.640373
 H         -30.005102      -87.553589      -24.162582
 C         -32.230690      -89.521294      -27.396439
 C         -32.745171      -89.482079      -25.948656
 C         -33.468529      -89.438728      -28.496895
 C         -33.493320      -88.182877      -25.658463
 C         -34.141804      -88.176445      -28.153648
 C         -34.562729      -87.862083      -26.699644
 H         -31.961161      -89.630211      -25.218348
 H         -33.409718      -90.304878      -25.759420
 H         -33.002026      -89.497429      -29.466103
 H         -34.093708      -90.315201      -28.289923
 H         -32.918770      -87.277115      -25.772884
 H         -34.006039      -88.167236      -24.650179
 H         -35.021229      -88.098824      -28.786205
 H         -33.472042      -87.361893      -28.337879
 H         -35.040482      -86.946465      -26.624086
 H         -35.428661      -88.455032      -26.538918
