20
 generated by VMD
 C         -51.096405     -130.015503      -44.955765
 N         -51.704376     -129.266159      -45.652370
 H         -48.486740     -129.629959      -43.249504
 H         -50.327885     -130.649170      -44.444889
 C         -47.927696     -129.949799      -42.352695
 C         -47.965206     -131.263596      -41.602715
 C         -47.505821     -128.749146      -41.574982
 C         -46.615963     -131.510300      -41.081909
 C         -46.094093     -129.000748      -41.073494
 C         -45.993870     -130.309372      -40.292580
 H         -48.325035     -132.025696      -42.159676
 H         -48.689564     -131.130676      -40.725441
 H         -47.407532     -127.780685      -42.129452
 H         -48.121166     -128.588913      -40.767006
 H         -45.831711     -131.768066      -41.807102
 H         -46.357094     -132.409134      -40.409233
 H         -45.782860     -128.257584      -40.372646
 H         -45.399525     -129.005661      -41.963482
 H         -44.921169     -130.548508      -40.247871
 H         -46.483231     -130.243668      -39.283340
