20
 generated by VMD
 C         -58.543858     -151.568451      -49.633389
 N         -59.148220     -152.205353      -48.808990
 H         -55.779202     -150.034653      -48.013885
 H         -57.849010     -151.059189      -50.367077
 C         -55.083942     -149.507156      -48.706779
 C         -54.201107     -150.585190      -49.407352
 C         -54.868320     -147.997925      -48.926121
 C         -54.237812     -150.246506      -50.893860
 C         -54.825386     -147.726379      -50.439892
 C         -53.849514     -148.768631      -51.169926
 H         -54.519279     -151.653244      -49.251610
 H         -53.132538     -150.675476      -49.138046
 H         -55.613010     -147.485825      -48.418114
 H         -53.928940     -147.872833      -48.440128
 H         -55.154724     -150.615463      -51.373409
 H         -53.455753     -150.808380      -51.439632
 H         -54.608177     -146.728394      -50.903694
 H         -55.815132     -147.949478      -50.713566
 H         -53.788723     -148.656967      -52.207085
 H         -52.830734     -148.584244      -50.808773
