20
 generated by VMD
 C          -3.195471      -17.531588        2.515981
 N          -3.158417      -18.123316        1.566925
 H          -5.436749      -19.613762        0.879074
 H          -5.582829      -20.420256       -0.626742
 C          -5.901602      -19.548470       -0.086781
 C          -5.462469      -18.247976       -0.672095
 C          -7.407424      -19.724787        0.118025
 C          -6.227042      -18.096191       -1.981334
 C          -8.231303      -19.433695       -1.074927
 C          -7.749566      -18.126732       -1.747910
 H          -4.402514      -18.335663       -0.846372
 H          -5.605216      -17.254910       -0.146860
 H          -7.658854      -20.679935        0.511294
 H          -7.691550      -19.154404        0.984825
 H          -5.871894      -18.816414       -2.694717
 H          -5.930123      -17.210262       -2.533879
 H          -9.285063      -19.326040       -0.850358
 H          -8.212620      -20.307741       -1.773788
 H          -8.322989      -17.906078       -2.665895
 H          -7.999284      -17.330441       -1.057233
