20
 generated by VMD
 C         -76.700417     -203.209747      -66.658585
 N         -77.442909     -203.745285      -65.966469
 H         -75.286781     -200.599136      -68.208466
 H         -75.980728     -202.757599      -67.314255
 C         -74.786644     -199.947830      -68.962952
 C         -74.814301     -198.499237      -68.769173
 C         -73.637444     -200.437851      -69.734001
 C         -73.447624     -197.861832      -68.860550
 C         -73.230850     -199.368973      -70.819984
 C         -72.786003     -198.102386      -70.182236
 H         -75.268585     -198.245560      -67.896828
 H         -75.346367     -198.120987      -69.617668
 H         -72.763680     -200.701981      -69.197006
 H         -73.871986     -201.455429      -70.095116
 H         -72.867897     -198.209885      -67.972260
 H         -73.413620     -196.797150      -68.701729
 H         -74.118141     -199.031754      -71.343712
 H         -72.468147     -199.797485      -71.434296
 H         -71.735420     -197.953918      -70.024178
 H         -73.167229     -197.198181      -70.899071
