20
 generated by VMD
 C         -24.393417      -69.975533      -16.525385
 N         -24.531195      -70.438988      -15.466308
 H         -23.593494      -67.379280      -19.164265
 H         -24.418114      -69.582802      -17.560799
 C         -24.424023      -67.960190      -19.643703
 C         -23.796976      -68.732491      -20.865124
 C         -25.896786      -67.686073      -19.401627
 C         -24.655598      -69.910889      -21.167150
 C         -26.639339      -68.911919      -19.888002
 C         -26.106773      -69.515656      -21.150158
 H         -22.679930      -68.965225      -20.686737
 H         -23.789949      -68.094223      -21.752420
 H         -26.107279      -67.652000      -18.379328
 H         -26.085817      -66.890663      -20.087576
 H         -24.444683      -70.805084      -20.509689
 H         -24.393719      -70.242493      -22.209793
 H         -27.758549      -68.609406      -19.935795
 H         -26.608274      -69.713028      -19.008875
 H         -26.663652      -70.453629      -21.306610
 H         -26.151766      -68.787956      -21.983454
