20
 generated by VMD
 C         -79.346069     -205.468842      -70.925415
 N         -80.418335     -205.880585      -71.271980
 H         -76.874954     -203.113937      -71.267281
 H         -78.483658     -205.173767      -70.360054
 C         -76.252434     -203.242981      -70.409111
 C         -75.269043     -202.086746      -70.110382
 C         -75.754959     -204.538742      -69.713005
 C         -73.936852     -202.428711      -70.605423
 C         -74.364975     -204.544647      -69.066422
 C         -73.281563     -203.670761      -69.789673
 H         -75.227730     -201.902969      -68.987053
 H         -75.699425     -201.202530      -70.518593
 H         -76.397598     -204.830383      -68.871712
 H         -75.759308     -205.228821      -70.605110
 H         -73.197998     -201.627045      -70.562340
 H         -74.037430     -202.802414      -71.598129
 H         -74.006561     -205.522232      -68.837234
 H         -74.571533     -204.053833      -68.080910
 H         -72.587891     -203.339447      -69.143311
 H         -72.779526     -204.276108      -70.550880
