20
 generated by VMD
 C         -22.225060      -67.395317      -16.242874
 N         -21.114141      -67.088013      -16.150539
 H         -23.925442      -65.248672      -18.356586
 H         -23.357834      -67.734779      -16.264633
 C         -24.445457      -66.205086      -18.542568
 C         -23.924776      -66.572517      -19.966370
 C         -25.841459      -66.335999      -18.173563
 C         -24.309498      -68.003281      -20.266773
 C         -26.491043      -67.688591      -18.733690
 C         -25.905975      -68.016479      -20.114601
 H         -22.788404      -66.418320      -20.033457
 H         -24.516676      -65.931786      -20.515329
 H         -25.918755      -66.201454      -17.085758
 H         -26.479038      -65.535034      -18.651865
 H         -23.876381      -68.777039      -19.697529
 H         -24.067408      -68.133408      -21.303814
 H         -27.550190      -67.541023      -18.912924
 H         -26.440170      -68.558617      -18.105833
 H         -26.169949      -69.056915      -20.400745
 H         -26.520018      -67.480148      -20.904671
