20
 generated by VMD
 C         -67.605400     -177.896988      -57.640907
 N         -67.332870     -178.763992      -56.934475
 H         -64.616943     -176.377060      -59.197380
 H         -67.906082     -177.183304      -58.402637
 C         -64.574203     -175.438019      -59.689415
 C         -65.766800     -174.535172      -59.665607
 C         -63.230289     -174.988129      -60.147556
 C         -65.415474     -173.062088      -59.515984
 C         -62.897842     -173.468475      -60.249111
 C         -64.213234     -172.676331      -60.459461
 H         -66.313042     -174.831696      -58.699322
 H         -66.355698     -174.628296      -60.531246
 H         -62.317757     -175.408768      -59.736393
 H         -63.117886     -175.178894      -61.170017
 H         -65.027504     -172.953278      -58.478283
 H         -66.290222     -172.431992      -59.830585
 H         -62.157806     -173.228851      -61.010059
 H         -62.422852     -173.376831      -59.210262
 H         -63.768360     -171.693359      -60.369858
 H         -64.495636     -172.790054      -61.475918
