20
 generated by VMD
 C         -79.480774     -205.469437      -70.906601
 N         -80.545250     -205.705643      -71.179916
 H         -77.225746     -203.011307      -69.794449
 H         -78.395325     -205.178757      -70.774857
 C         -76.183456     -203.232941      -70.013939
 C         -75.356133     -201.996521      -70.213768
 C         -75.517998     -204.427811      -69.596237
 C         -73.833023     -202.215164      -70.418434
 C         -74.110489     -204.155518      -69.035576
 C         -73.155663     -203.507553      -70.014389
 H         -75.500282     -201.422165      -69.324463
 H         -75.843399     -201.360275      -71.012093
 H         -76.173409     -205.005493      -68.897560
 H         -75.437317     -205.001038      -70.527115
 H         -73.215126     -201.422180      -69.997162
 H         -73.706062     -202.304367      -71.530510
 H         -73.559395     -205.027252      -68.674751
 H         -74.249077     -203.468353      -68.167244
 H         -72.035217     -203.167816      -69.787750
 H         -73.015121     -204.166809      -70.913338
