20
 generated by VMD
 C         -49.708488     -133.131378      -46.911060
 N         -48.951954     -132.351196      -47.077896
 H         -48.129654     -134.318024      -44.427055
 H         -50.132504     -134.077896      -46.735653
 C         -48.994404     -134.704178      -43.910675
 C         -49.288235     -136.161682      -44.114384
 C         -49.852207     -133.775024      -43.175621
 C         -50.030460     -136.746475      -42.895287
 C         -50.562923     -134.527191      -42.008545
 C         -51.226196     -135.806030      -42.497108
 H         -48.384232     -136.669052      -44.214596
 H         -49.902863     -136.372147      -45.024612
 H         -49.274368     -132.929779      -42.853424
 H         -50.692196     -133.375107      -43.829998
 H         -49.210651     -136.876892      -42.190567
 H         -50.277996     -137.783478      -43.089699
 H         -51.320637     -133.846268      -41.519070
 H         -49.795639     -134.809433      -41.257774
 H         -51.822773     -136.261459      -41.736771
 H         -51.886837     -135.638794      -43.444401
