20
 generated by VMD
 C         -59.869972     -156.930954      -56.512726
 N         -60.976353     -156.494919      -56.528019
 H         -59.806213     -157.360016      -53.226025
 H         -58.872505     -157.329285      -56.682438
 C         -58.939072     -157.881699      -52.675602
 C         -57.735962     -157.047714      -52.287838
 C         -58.992706     -159.394760      -52.474876
 C         -57.349052     -157.479355      -50.912537
 C         -58.443798     -159.758148      -51.087765
 C         -57.125919     -158.991226      -50.713047
 H         -57.747128     -155.952576      -52.292274
 H         -56.831917     -157.392838      -52.998871
 H         -60.108582     -159.667145      -52.559116
 H         -58.504417     -159.856201      -53.336620
 H         -58.305367     -157.121460      -50.265732
 H         -56.601273     -156.876404      -50.438484
 H         -58.274292     -160.847015      -50.930889
 H         -59.204147     -159.536743      -50.204983
 H         -56.906799     -159.116943      -49.574726
 H         -56.296146     -159.358276      -51.246864
