20
 generated by VMD
 C         -58.432594     -160.275131      -56.933292
 N         -58.639698     -159.849167      -58.022770
 H         -58.756599     -163.107452      -54.915401
 H         -58.170738     -160.699921      -55.964569
 C         -59.640972     -163.191666      -54.257362
 C         -59.470310     -163.175064      -52.789581
 C         -61.061974     -163.317795      -54.593094
 C         -60.388695     -162.185272      -52.130470
 C         -61.935932     -162.160828      -54.112770
 C         -61.823574     -162.249069      -52.606579
 H         -58.375641     -162.918854      -52.601341
 H         -59.496185     -164.193298      -52.313572
 H         -61.175587     -163.442459      -55.648006
 H         -61.425503     -164.257935      -54.032856
 H         -59.955334     -161.170990      -52.255840
 H         -60.298641     -162.414429      -51.076653
 H         -62.926514     -162.189133      -54.487186
 H         -61.605331     -161.188507      -54.331402
 H         -62.287380     -161.340546      -52.170471
 H         -62.400887     -163.070999      -52.151943
