20
 generated by VMD
 C         -38.598106     -109.625954      -36.265949
 N         -37.644672     -108.970917      -36.198441
 H         -42.433533     -110.441200      -36.931179
 H         -39.634079     -110.067619      -36.180988
 C         -42.060680     -110.711609      -35.987549
 C         -41.755959     -112.282867      -36.078938
 C         -42.601398     -110.245102      -34.610939
 C         -40.875397     -112.672752      -34.895733
 C         -41.804153     -110.797295      -33.436100
 C         -41.480904     -112.249649      -33.469299
 H         -41.216713     -112.600166      -36.949337
 H         -42.718929     -112.784004      -36.033195
 H         -42.458141     -109.193169      -34.532116
 H         -43.635517     -110.401535      -34.439999
 H         -40.011425     -112.084099      -35.028751
 H         -40.695591     -113.790962      -34.841690
 H         -42.363586     -110.570923      -32.530441
 H         -40.889820     -110.180069      -33.427303
 H         -40.708549     -112.546646      -32.656303
 H         -42.267277     -112.874664      -33.270115
