20
 generated by VMD
 C         -68.784447     -193.759384      -64.563721
 N         -68.427673     -194.320938      -65.533791
 H         -70.998077     -193.574921      -67.681648
 H         -68.980919     -193.130051      -63.640331
 C         -71.839813     -193.087662      -67.226791
 C         -71.517799     -191.802979      -66.361031
 C         -73.199455     -193.712311      -67.309425
 C         -72.812836     -191.166656      -65.943100
 C         -74.232948     -193.318878      -66.241859
 C         -73.760330     -192.183136      -65.230850
 H         -70.922462     -191.055603      -66.966476
 H         -70.926949     -192.232651      -65.513901
 H         -73.708237     -193.544479      -68.260727
 H         -73.007011     -194.779221      -66.956146
 H         -73.326141     -190.647079      -66.825829
 H         -72.440575     -190.438904      -65.164711
 H         -74.640434     -194.205215      -65.671257
 H         -75.019295     -192.946808      -66.877487
 H         -74.686615     -191.773514      -64.916313
 H         -73.149101     -192.655472      -64.352104
