20
 generated by VMD
 C         -13.506371      -30.616745       -8.343013
 N         -13.471295      -30.075613       -9.340758
 H         -11.051758      -31.426271       -5.566321
 H         -11.145601      -31.895641       -3.817085
 C         -10.981666      -32.241806       -4.843585
 C          -9.527153      -32.835674       -4.901362
 C         -11.966901      -33.411682       -5.224438
 C          -9.443644      -34.084839       -3.988266
 C         -11.894373      -34.589413       -4.331673
 C         -10.487256      -35.158707       -4.370262
 H          -8.819776      -32.088760       -4.651968
 H          -9.362007      -33.158638       -5.971777
 H         -12.953349      -32.966824       -5.174775
 H         -11.743457      -33.614666       -6.256454
 H          -9.606873      -33.756187       -2.971201
 H          -8.494063      -34.563648       -3.939178
 H         -12.610183      -35.429878       -4.618325
 H         -12.151983      -34.301243       -3.343009
 H         -10.360124      -35.985107       -3.627552
 H         -10.325379      -35.491070       -5.371105
