20
 generated by VMD
 C          -2.577439      -16.715242        2.784971
 N          -1.865584      -17.126598        2.025182
 H          -4.731386      -16.125689        0.571078
 H          -4.480176      -17.337732       -0.623552
 C          -5.296143      -16.859011       -0.085930
 C          -6.268869      -16.258482       -1.088564
 C          -5.845393      -17.904730        0.877790
 C          -7.274500      -17.260912       -1.692330
 C          -6.691144      -18.885891        0.106013
 C          -7.828177      -18.200953       -0.660360
 H          -5.760875      -15.724497       -1.881694
 H          -6.933465      -15.549170       -0.547026
 H          -5.038682      -18.465111        1.342053
 H          -6.481047      -17.390762        1.614017
 H          -6.722743      -17.795874       -2.460158
 H          -8.127031      -16.668127       -2.075245
 H          -7.170640      -19.632410        0.755186
 H          -6.103312      -19.384872       -0.653253
 H          -8.460732      -18.992729       -1.114619
 H          -8.478262      -17.655804        0.052483
