20
 generated by VMD
 C         -19.157984      -61.435787      -16.218523
 N         -19.916315      -60.618172      -16.438814
 H         -22.420519      -62.161133      -18.250641
 H         -18.428564      -62.265915      -16.191292
 C         -22.993324      -63.056572      -17.855207
 C         -24.100502      -63.578320      -18.742432
 C         -22.929216      -63.264225      -16.349724
 C         -24.835236      -64.828796      -18.277758
 C         -23.661232      -64.538261      -16.010553
 C         -25.001125      -64.782776      -16.803501
 H         -23.667093      -63.797581      -19.710436
 H         -24.785460      -62.792179      -18.798843
 H         -21.928934      -63.278160      -15.969731
 H         -23.518686      -62.466274      -15.931310
 H         -24.171665      -65.618469      -18.623964
 H         -25.649977      -65.066925      -18.868187
 H         -23.845692      -64.460564      -14.898017
 H         -22.956753      -65.375023      -16.262394
 H         -25.484102      -65.703873      -16.337227
 H         -25.709202      -63.980492      -16.547262
