20
 generated by VMD
 C         -50.436188     -129.189011      -43.571285
 N         -50.847908     -129.612167      -44.606224
 H         -48.889236     -128.002762      -40.663414
 H         -50.111496     -128.887283      -42.572453
 C         -47.806656     -128.178635      -40.515221
 C         -47.186192     -129.464417      -40.249649
 C         -46.948067     -126.961517      -40.632648
 C         -46.267105     -129.849945      -41.401882
 C         -45.953144     -127.220093      -41.810745
 C         -45.260014     -128.607727      -41.485226
 H         -47.934856     -130.185104      -40.065746
 H         -46.553146     -129.421448      -39.335499
 H         -47.400185     -126.042984      -40.807514
 H         -46.292061     -126.711052      -39.760609
 H         -46.759365     -129.892929      -42.349640
 H         -45.748405     -130.793228      -41.168766
 H         -45.221172     -126.417625      -41.772484
 H         -46.478428     -127.358116      -42.728882
 H         -44.573505     -128.893005      -42.229763
 H         -44.788879     -128.540970      -40.525085
