20
 generated by VMD
 C         -48.783249     -126.461060      -38.658745
 N         -49.473499     -127.414238      -38.505493
 H         -46.312614     -124.088234      -38.625500
 H         -48.137844     -125.567932      -38.873169
 C         -45.664330     -123.638123      -39.443806
 C         -44.450703     -124.505379      -39.601391
 C         -45.739677     -122.282593      -40.097366
 C         -44.009941     -124.534943      -41.101868
 C         -45.282127     -122.375282      -41.553089
 C         -44.118126     -123.258980      -41.908741
 H         -44.673119     -125.440041      -39.107315
 H         -43.752335     -124.145241      -38.817574
 H         -46.810925     -121.846107      -40.040791
 H         -45.032215     -121.726677      -39.514706
 H         -44.826958     -125.080315      -41.575142
 H         -43.048679     -125.018509      -41.177654
 H         -45.098755     -121.399002      -41.966469
 H         -46.112526     -122.880585      -42.093830
 H         -44.086021     -123.477432      -42.976723
 H         -43.229706     -122.584793      -41.708496
