20
 generated by VMD
 C         -50.441570     -129.093338      -43.606224
 N         -50.821587     -129.555252      -44.550255
 H         -48.943039     -128.178452      -40.358818
 H         -49.984867     -128.590591      -42.798649
 C         -47.842056     -128.182129      -40.360096
 C         -47.136181     -129.448792      -40.106480
 C         -46.977791     -126.941978      -40.675690
 C         -46.141800     -129.672791      -41.322372
 C         -45.999287     -127.289070      -41.810299
 C         -45.215576     -128.550949      -41.648094
 H         -47.871857     -130.211899      -40.017548
 H         -46.539639     -129.457031      -39.182575
 H         -47.507099     -126.126160      -41.033409
 H         -46.328339     -126.447472      -39.879967
 H         -46.659786     -129.786377      -42.227081
 H         -45.477345     -130.488617      -41.171207
 H         -45.296829     -126.428223      -41.833263
 H         -46.625748     -127.388458      -42.700283
 H         -44.677422     -128.878052      -42.494118
 H         -44.549965     -128.457642      -40.816650
