20
 generated by VMD
 C         -23.431459      -53.190094      -13.056501
 N         -23.197790      -52.617805      -14.043711
 H         -20.468122      -54.866653      -14.415109
 H         -23.644169      -53.459553      -12.177884
 C         -19.541008      -54.691769      -14.116652
 C         -18.970823      -53.330158      -14.135311
 C         -18.540106      -55.841125      -13.858253
 C         -17.837736      -53.237701      -13.026601
 C         -17.097895      -55.593529      -13.397982
 C         -16.688677      -54.171120      -13.301538
 H         -19.721079      -52.522606      -13.906386
 H         -18.752771      -53.062393      -15.213341
 H         -18.941179      -56.589874      -13.242674
 H         -18.412407      -56.309944      -14.854288
 H         -18.237652      -53.374336      -12.005703
 H         -17.535015      -52.207706      -13.111564
 H         -16.389204      -56.013641      -14.049780
 H         -17.051056      -56.147282      -12.424439
 H         -15.837391      -54.088108      -12.565041
 H         -16.242956      -53.890701      -14.278038
