20
 generated by VMD
 C         -38.405148     -109.154373      -36.543884
 N         -37.309059     -108.843628      -36.368591
 H         -42.157768     -109.914177      -36.389000
 H         -39.384968     -109.639664      -36.824547
 C         -42.190308     -110.724205      -35.758511
 C         -41.691189     -112.025955      -35.939102
 C         -42.798668     -110.348534      -34.457359
 C         -40.864689     -112.563187      -34.756653
 C         -41.850117     -110.676590      -33.315998
 C         -41.360786     -112.177345      -33.369534
 H         -40.957359     -111.905960      -36.736584
 H         -42.392670     -112.766724      -36.222137
 H         -42.856186     -109.302826      -34.387672
 H         -43.817707     -110.675049      -34.298615
 H         -39.897575     -111.971291      -34.903023
 H         -40.706135     -113.647499      -34.973637
 H         -42.347836     -110.501396      -32.420464
 H         -41.012436     -110.045876      -33.350735
 H         -40.538502     -112.180840      -32.567646
 H         -42.169514     -112.723213      -32.933907
