20
 generated by VMD
 C         -50.174076     -131.105804      -46.568462
 N         -50.285366     -131.451416      -47.618694
 H         -48.286194     -131.853256      -44.055729
 H         -49.769329     -130.979446      -45.612434
 C         -48.898018     -132.208923      -43.210140
 C         -49.467522     -133.610779      -43.162926
 C         -48.726040     -131.600494      -41.919174
 C         -48.737755     -134.542419      -42.243961
 C         -47.841042     -132.503128      -40.989574
 C         -48.503395     -133.872833      -40.830650
 H         -49.512089     -134.129074      -44.195110
 H         -50.489925     -133.533783      -42.875435
 H         -48.152012     -130.603088      -42.047737
 H         -49.752625     -131.441025      -41.606438
 H         -47.720623     -134.774780      -42.537334
 H         -49.198215     -135.489014      -41.966919
 H         -47.838718     -131.839188      -40.169567
 H         -46.801384     -132.580338      -41.500195
 H         -47.973438     -134.542892      -40.105686
 H         -49.480484     -133.784241      -40.219913
