20
 generated by VMD
 C         -12.940495      -28.791847       -6.100562
 N         -13.098776      -28.740871       -7.202868
 H         -12.096948      -31.081400       -5.164098
 H         -10.944379      -29.850702       -4.985760
 C         -11.068900      -30.885721       -4.775414
 C         -10.112807      -31.665722       -5.610588
 C         -10.873490      -31.078953       -3.238741
 C          -8.688098      -31.476952       -5.151279
 C          -9.412173      -31.147959       -2.801201
 C          -8.585770      -31.967947       -3.712511
 H         -10.235237      -31.381298       -6.612058
 H         -10.198490      -32.775520       -5.560167
 H         -11.324612      -30.249174       -2.674360
 H         -11.385655      -31.969595       -2.961850
 H          -8.468352      -30.427002       -5.221173
 H          -7.943725      -31.933086       -5.755157
 H          -9.330441      -31.512264       -1.784723
 H          -9.049313      -30.084618       -2.837167
 H          -7.522453      -31.896870       -3.346195
 H          -8.784653      -33.030586       -3.645243
