20
 generated by VMD
 C         -22.545401      -55.534130      -16.342476
 N         -23.218410      -54.643635      -16.132282
 H         -19.591127      -55.640720      -15.716659
 H         -21.778809      -56.157707      -16.887453
 C         -19.633301      -56.505341      -15.093145
 C         -20.543962      -56.433556      -13.831357
 C         -18.547314      -57.438339      -15.120746
 C         -20.908255      -57.843388      -13.321555
 C         -18.936991      -58.862007      -14.716523
 C         -19.749445      -58.868053      -13.381403
 H         -21.360979      -55.841431      -14.114551
 H         -20.056087      -55.915642      -13.038837
 H         -18.168369      -57.594151      -16.073357
 H         -17.703465      -57.081944      -14.475942
 H         -21.707872      -58.286476      -13.925521
 H         -21.296379      -57.724876      -12.253306
 H         -18.040012      -59.483879      -14.788743
 H         -19.604382      -59.319389      -15.550655
 H         -20.241745      -59.826309      -13.250778
 H         -18.977663      -58.695545      -12.572607
