20
 generated by VMD
 C         -67.289543     -189.648972      -67.020180
 N         -66.742348     -190.098770      -66.093971
 H         -70.617485     -190.834671      -66.297615
 H         -67.949005     -189.439148      -67.864304
 C         -71.054001     -190.417786      -65.375954
 C         -72.144341     -191.092453      -64.626488
 C         -70.456131     -189.113525      -64.630470
 C         -73.233833     -190.097000      -64.238037
 C         -71.434860     -188.328339      -63.723946
 C         -72.590881     -189.114410      -63.185852
 H         -71.787750     -191.701843      -63.802471
 H         -72.562469     -191.944458      -65.162140
 H         -69.560898     -189.344818      -64.065308
 H         -69.991745     -188.277084      -65.291031
 H         -74.139229     -190.579849      -63.880028
 H         -73.675400     -189.540176      -65.155762
 H         -71.886467     -187.433731      -64.274010
 H         -70.898819     -187.871155      -62.882710
 H         -72.075058     -189.665619      -62.423729
 H         -73.419060     -188.472946      -62.802685
