20
 generated by VMD
 C         -38.701271     -113.688820      -35.709854
 N         -37.910149     -114.559441      -35.744617
 H         -41.354992     -114.733116      -35.752644
 H         -39.482666     -113.038391      -35.458466
 C         -42.297920     -114.405548      -36.237423
 C         -42.425968     -114.637383      -37.676994
 C         -43.491245     -114.307518      -35.444851
 C         -43.698215     -115.415497      -38.113293
 C         -44.494175     -115.335838      -35.823063
 C         -44.959507     -115.128448      -37.235619
 H         -41.527222     -115.238136      -38.115505
 H         -42.498722     -113.612350      -38.211895
 H         -43.212799     -114.377861      -34.322197
 H         -43.829727     -113.220779      -35.444340
 H         -43.592121     -116.525551      -37.950279
 H         -44.007645     -115.280479      -39.118462
 H         -45.251438     -115.306793      -34.963207
 H         -44.031490     -116.404152      -35.651661
 H         -45.696957     -115.831436      -37.729687
 H         -45.197842     -114.054283      -37.402637
