20
 generated by VMD
 C         -46.723743     -124.660988      -37.370308
 N         -46.921928     -124.747292      -36.211590
 H         -44.560608     -122.019669      -37.759953
 H         -46.581810     -124.800346      -38.421299
 C         -44.611691     -121.919083      -38.858738
 C         -43.417732     -122.231453      -39.588551
 C         -45.900520     -121.427086      -39.477978
 C         -43.635017     -122.282173      -41.182941
 C         -46.066128     -121.505005      -40.960621
 C         -44.737057     -121.467285      -41.738972
 H         -43.058296     -123.167374      -39.109730
 H         -42.696884     -121.323509      -39.513454
 H         -46.817505     -121.911728      -38.943081
 H         -45.977989     -120.376518      -39.255234
 H         -43.760197     -123.316399      -41.438698
 H         -42.786503     -122.068092      -41.739002
 H         -46.835728     -120.938240      -41.479607
 H         -46.311405     -122.573433      -41.064537
 H         -44.834106     -121.565964      -42.806587
 H         -44.377811     -120.388252      -41.656891
