20
 generated by VMD
 C         -30.109650      -76.006142      -23.175924
 N         -30.884052      -75.580750      -23.920012
 H         -28.890646      -79.003098      -21.430468
 H         -29.534267      -76.314034      -22.260181
 C         -28.360834      -78.107910      -21.618141
 C         -27.634981      -78.092331      -22.941103
 C         -27.701101      -77.642136      -20.380640
 C         -26.695217      -76.861130      -23.191761
 C         -26.863535      -76.271355      -20.666719
 C         -25.930372      -76.415443      -21.943121
 H         -28.319454      -78.284081      -23.765453
 H         -26.924540      -79.003082      -22.951050
 H         -28.437733      -77.395050      -19.713263
 H         -27.037800      -78.441605      -19.982132
 H         -27.347462      -76.083038      -23.655025
 H         -25.968632      -77.041664      -24.018028
 H         -26.236244      -75.888680      -19.824814
 H         -27.472561      -75.401085      -20.923258
 H         -25.529119      -75.454132      -22.250202
 H         -25.187151      -77.183586      -21.622194
