20
 generated by VMD
 C         -15.077209      -45.782047       -7.117378
 N         -14.599115      -46.734497       -6.762305
 H         -15.495651      -44.157692       -9.010936
 H         -14.523140      -44.276436      -10.432215
 C         -15.572206      -44.361843      -10.109187
 C         -16.421621      -43.351330      -10.829862
 C         -16.072212      -45.803001      -10.314550
 C         -16.639849      -43.847393      -12.252395
 C         -16.286158      -46.339840      -11.754872
 C         -17.209129      -45.263397      -12.416160
 H         -16.086432      -42.318184      -10.832565
 H         -17.440792      -43.346508      -10.400647
 H         -15.460403      -46.604378       -9.780346
 H         -16.993570      -45.795620       -9.685708
 H         -15.685372      -43.803051      -12.809503
 H         -17.357836      -43.175632      -12.744060
 H         -16.893930      -47.298550      -11.591737
 H         -15.305668      -46.611420      -12.235497
 H         -17.352747      -45.366947      -13.510469
 H         -18.165848      -45.382698      -11.888320
