20
 generated by VMD
 C         -69.321693     -180.929855      -62.358700
 N         -70.152931     -180.119995      -62.225990
 H         -66.965591     -181.425980      -60.223446
 H         -68.505127     -181.620438      -62.580414
 C         -66.528557     -180.388977      -60.398792
 C         -65.003311     -180.413071      -60.605103
 C         -67.055450     -179.115707      -59.724003
 C         -64.570457     -179.099182      -61.234558
 C         -66.617294     -177.926743      -60.502773
 C         -65.161469     -177.800552      -60.724735
 H         -64.729187     -181.185425      -61.358200
 H         -64.531204     -180.555145      -59.615665
 H         -68.187096     -179.242523      -59.810825
 H         -66.823311     -179.066238      -58.708790
 H         -64.753685     -179.292236      -62.365921
 H         -63.449547     -179.000015      -61.268387
 H         -66.940681     -176.957428      -60.107224
 H         -66.985023     -178.087280      -61.556198
 H         -64.792191     -176.989227      -61.277328
 H         -64.738632     -177.648270      -59.637054
