20
 generated by VMD
 C         -67.970627     -178.554184      -58.059940
 N         -66.913857     -178.396896      -57.634804
 H         -65.395966     -176.483963      -58.865021
 H         -68.934990     -178.845840      -58.468327
 C         -65.046745     -175.635193      -59.391224
 C         -66.011269     -174.714035      -60.070030
 C         -63.610355     -175.705261      -59.909672
 C         -65.474251     -173.208191      -59.911175
 C         -63.035843     -174.219284      -59.899708
 C         -64.016968     -173.197845      -60.493309
 H         -66.975204     -174.756760      -59.618393
 H         -66.154266     -175.077026      -61.111183
 H         -62.950218     -176.327530      -59.265129
 H         -63.539108     -176.009369      -60.957020
 H         -65.558388     -172.920746      -58.876934
 H         -66.031212     -172.701309      -60.646484
 H         -61.999531     -174.318390      -60.379532
 H         -62.873955     -173.994675      -58.846882
 H         -63.713795     -172.176254      -60.203255
 H         -63.910492     -173.109604      -61.610912
