20
 generated by VMD
 C         -79.455482     -207.070877      -75.818481
 N         -80.234146     -207.135864      -74.919815
 H         -77.358826     -207.934906      -73.076286
 H         -78.947884     -206.989929      -76.783318
 C         -77.077995     -208.600845      -72.231247
 C         -75.816154     -208.391724      -71.431931
 C         -77.944527     -209.682327      -71.602020
 C         -76.217613     -207.833298      -70.018227
 C         -78.138794     -209.473434      -70.128693
 C         -76.933540     -209.053055      -69.328903
 H         -75.356934     -207.493683      -71.883301
 H         -74.979050     -209.119919      -71.333374
 H         -78.881355     -209.835159      -72.178337
 H         -77.436081     -210.677246      -71.704803
 H         -76.922699     -206.975922      -70.056084
 H         -75.452026     -207.450333      -69.331474
 H         -78.394279     -210.398804      -69.734329
 H         -78.997520     -208.794403      -69.895218
 H         -77.125717     -208.531067      -68.374840
 H         -76.308754     -209.935333      -69.122612
