20
 generated by VMD
 C         -41.998608     -101.771332      -33.576435
 N         -40.862820     -101.822678      -33.895477
 H         -38.914207     -103.653107      -33.008389
 H         -43.024113     -101.709053      -33.245090
 C         -38.077911     -103.659569      -32.225674
 C         -36.876278     -103.619179      -33.127712
 C         -37.890514     -104.180214      -30.870083
 C         -35.796432     -102.834106      -32.359692
 C         -36.633617     -103.699028      -30.142570
 C         -35.477551     -103.499794      -31.083166
 H         -36.995403     -103.315018      -34.139301
 H         -36.561626     -104.670250      -33.200703
 H         -38.677898     -103.869247      -30.145460
 H         -37.964241     -105.259949      -30.813669
 H         -36.192093     -101.788353      -32.185902
 H         -34.818302     -102.709412      -32.965187
 H         -36.309937     -104.339149      -29.279903
 H         -36.953152     -102.776871      -29.654287
 H         -34.706348     -102.825981      -30.612394
 H         -34.982998     -104.464989      -31.278324
