20
 generated by VMD
 C         -28.978188      -73.878242      -19.502140
 N         -29.953091      -74.461555      -19.508667
 H         -25.682480      -73.473114      -18.859735
 H         -27.960833      -73.549088      -19.253466
 C         -25.682997      -73.217155      -19.943029
 C         -25.321159      -74.375809      -20.732540
 C         -25.761295      -71.765915      -20.392385
 C         -25.833385      -74.268234      -22.156889
 C         -26.266945      -71.658226      -21.917513
 C         -25.506002      -72.896606      -22.664660
 H         -25.789921      -75.270454      -20.315666
 H         -24.287706      -74.429588      -20.724245
 H         -26.406227      -71.144882      -19.776472
 H         -24.747179      -71.291870      -20.408669
 H         -26.914486      -74.489136      -22.189564
 H         -25.362062      -74.923798      -22.918009
 H         -26.097960      -70.643021      -22.443697
 H         -27.442457      -71.852058      -21.949436
 H         -25.743622      -72.980415      -23.719610
 H         -24.454119      -72.696022      -22.567907
