20
 generated by VMD
 C         -38.606564      -99.090378      -27.121386
 N         -37.695396      -99.001213      -26.404655
 H         -36.884666      -97.310318      -29.874249
 H         -39.546284      -99.090645      -27.705198
 C         -36.009235      -96.907265      -30.330975
 C         -35.465378      -97.487244      -31.568520
 C         -35.300770      -95.996101      -29.465012
 C         -34.496532      -96.601242      -32.287033
 C         -34.030041      -95.309212      -30.028431
 C         -33.434212      -96.012703      -31.283981
 H         -36.345615      -97.800735      -32.194073
 H         -34.957535      -98.376991      -31.261269
 H         -36.017155      -95.137215      -29.227556
 H         -35.222149      -96.471176      -28.496264
 H         -35.226746      -95.801262      -32.722893
 H         -33.993748      -97.099281      -33.115002
 H         -33.277626      -95.240959      -29.260210
 H         -34.061543      -94.194626      -30.302288
 H         -32.661507      -95.230606      -31.630121
 H         -32.825466      -96.825218      -31.011457
