20
 generated by VMD
 C         -13.935816      -28.178183       -3.403897
 N         -14.045440      -27.245855       -3.993180
 H         -10.124052      -28.786951       -2.481366
 H         -10.063083      -27.481913       -3.832324
 C          -9.536118      -28.231855       -3.209773
 C          -9.051937      -29.235897       -4.392776
 C          -8.424589      -27.566267       -2.430535
 C          -7.819275      -28.797234       -5.142829
 C          -7.311489      -27.059462       -3.322744
 C          -6.767543      -28.093603       -4.278355
 H          -9.949182      -29.570459       -5.022993
 H          -8.819411      -30.098619       -3.833210
 H          -8.890664      -26.751783       -1.874346
 H          -7.950792      -28.310736       -1.819253
 H          -8.005547      -28.005064       -5.898134
 H          -7.384023      -29.630238       -5.781020
 H          -6.500856      -26.611849       -2.704037
 H          -7.763996      -26.247303       -3.851836
 H          -5.953501      -27.735905       -4.909615
 H          -6.308963      -28.838112       -3.624665
