20
 generated by VMD
 C         -56.609360     -150.118347      -47.642773
 N         -57.682762     -150.389084      -47.989525
 H         -53.788750     -148.482071      -47.463001
 H         -55.572460     -149.932632      -47.274330
 C         -53.649231     -147.966095      -48.463821
 C         -53.075603     -148.618118      -49.645126
 C         -54.496593     -146.685211      -48.554726
 C         -54.127441     -148.729828      -50.689095
 C         -55.502464     -146.953003      -49.693806
 C         -55.014996     -147.557831      -50.946434
 H         -52.718010     -149.615997      -49.397778
 H         -52.176365     -147.925110      -49.953926
 H         -55.162857     -146.618088      -47.740589
 H         -53.910458     -145.724930      -48.626892
 H         -54.706783     -149.573685      -50.383263
 H         -53.764736     -148.989655      -51.692955
 H         -55.907253     -146.022797      -49.868778
 H         -56.206856     -147.625397      -49.170738
 H         -55.800919     -147.697067      -51.647228
 H         -54.434326     -146.779251      -51.460560
