20
 generated by VMD
 C         -69.800781     -183.206253      -65.724236
 N         -70.807022     -182.696899      -65.850075
 H         -68.377434     -183.710297      -62.801525
 H         -68.887321     -183.728546      -65.657440
 C         -67.680702     -183.211960      -62.156040
 C         -67.745461     -183.893356      -60.847904
 C         -67.264908     -181.830414      -62.324886
 C         -66.858887     -183.294128      -59.817333
 C         -66.638573     -181.195480      -61.119511
 C         -67.122292     -181.798569      -59.756695
 H         -67.408272     -184.909286      -61.017925
 H         -68.795837     -184.022018      -60.578480
 H         -66.501915     -181.824341      -63.016331
 H         -68.208984     -181.443008      -62.749905
 H         -65.736771     -183.556244      -60.069401
 H         -66.984215     -183.794800      -58.820610
 H         -66.809921     -180.121506      -60.976418
 H         -65.563942     -181.353546      -61.287292
 H         -66.683777     -181.353210      -58.937702
 H         -68.188065     -181.695129      -59.594536
