20
 generated by VMD
 C         -59.873978     -171.673035      -55.243759
 N         -59.541645     -172.740417      -54.864559
 H         -62.983444     -170.419281      -56.335777
 H         -60.196655     -170.737061      -55.660030
 C         -63.475163     -169.592911      -56.932182
 C         -62.688354     -168.310028      -57.327534
 C         -64.897163     -169.251846      -56.909161
 C         -63.087360     -167.853134      -58.796257
 C         -65.452164     -168.784225      -58.274464
 C         -64.591087     -167.659393      -58.942966
 H         -61.629303     -168.413574      -57.334320
 H         -62.927704     -167.487228      -56.660973
 H         -65.628616     -170.004852      -56.692558
 H         -65.087830     -168.431137      -56.144989
 H         -62.729000     -168.537888      -59.498962
 H         -62.558014     -166.948273      -59.021164
 H         -66.529968     -168.386353      -58.137550
 H         -65.440269     -169.592560      -59.054867
 H         -65.039093     -167.541275      -59.889446
 H         -64.825188     -166.724197      -58.371498
