20
 generated by VMD
 C          -1.618521      -13.118649        0.671362
 N          -0.728477      -13.775970        0.558886
 H          -3.869207      -14.291725        1.832797
 H          -4.935844      -14.177073        0.497733
 C          -4.729103      -14.756204        1.361707
 C          -6.076406      -14.714341        2.151472
 C          -4.381704      -16.133684        0.988927
 C          -7.216002      -15.363314        1.357716
 C          -5.505752      -16.862221        0.258479
 C          -6.791344      -16.811115        1.065335
 H          -6.300062      -13.674275        2.399888
 H          -5.912423      -15.154965        3.189052
 H          -3.440451      -16.172487        0.347606
 H          -4.139326      -16.748369        1.973082
 H          -7.491302      -14.886640        0.432872
 H          -8.101671      -15.371878        1.961398
 H          -5.163061      -17.898157        0.175632
 H          -5.671550      -16.491907       -0.739231
 H          -7.597069      -17.404802        0.587145
 H          -6.646160      -17.329859        2.011280
