20
 generated by VMD
 C         -12.846643      -43.290295       -6.903006
 N         -12.781269      -42.192970       -6.844013
 H         -14.546426      -43.908630       -8.473097
 H         -14.506346      -42.418156       -9.477781
 C         -15.086150      -43.418026       -9.300959
 C         -16.576094      -43.130959       -8.971500
 C         -14.986084      -44.451149      -10.452163
 C         -17.297089      -42.563263      -10.187881
 C         -15.514946      -43.900043      -11.764682
 C         -16.917511      -43.394882      -11.470279
 H         -16.682623      -42.457375       -8.110826
 H         -17.043064      -44.095669       -8.793562
 H         -13.877762      -44.694138      -10.587849
 H         -15.568275      -45.361286      -10.194778
 H         -16.915771      -41.560547      -10.354621
 H         -18.350557      -42.525059       -9.958538
 H         -15.403609      -44.560177      -12.589165
 H         -14.876050      -43.011864      -12.060717
 H         -17.179737      -42.833889      -12.385928
 H         -17.572620      -44.312984      -11.509137
