20
 generated by VMD
 C         -59.384281     -158.094482      -56.177784
 N         -58.938911     -158.639008      -57.032703
 H         -60.631573     -157.882523      -53.139591
 H         -59.763599     -157.556763      -55.309128
 C         -59.977432     -158.742981      -52.915958
 C         -58.519409     -158.479767      -52.575111
 C         -60.447956     -160.091873      -53.169216
 C         -58.039299     -159.619751      -51.598064
 C         -59.966728     -161.035202      -52.140564
 C         -58.477116     -160.976425      -51.978802
 H         -58.472607     -157.548752      -51.898224
 H         -57.876957     -158.462555      -53.474621
 H         -61.582275     -160.249924      -53.165424
 H         -60.127796     -160.416626      -54.203194
 H         -58.336132     -159.478378      -50.524479
 H         -56.893425     -159.532852      -51.578930
 H         -60.368847     -162.060440      -52.457150
 H         -60.287815     -160.904572      -51.106915
 H         -58.239429     -161.652542      -51.216686
 H         -58.108013     -161.442596      -52.900990
