20
 generated by VMD
 C          -4.141649      -20.744881        3.043193
 N          -4.668274      -19.787395        2.841821
 H          -5.173215      -18.908857       -0.344836
 H          -5.692235      -20.539059       -0.368255
 C          -5.883743      -19.557240       -0.842022
 C          -5.681188      -19.669262       -2.359250
 C          -7.272286      -19.073669       -0.488658
 C          -6.815164      -20.441826       -3.007088
 C          -8.426836      -19.756777       -1.238992
 C          -8.149508      -19.691036       -2.798784
 H          -4.762697      -20.168234       -2.504350
 H          -5.441587      -18.696257       -2.855387
 H          -7.489939      -19.167767        0.663627
 H          -7.350528      -17.929781       -0.614215
 H          -6.845914      -21.471504       -2.636764
 H          -6.620978      -20.478838       -4.098424
 H          -9.402762      -19.334564       -1.047326
 H          -8.474328      -20.794863       -0.929235
 H          -8.956287      -20.080673       -3.400667
 H          -8.163694      -18.637014       -3.122685
