20
 generated by VMD
 C         -16.446665      -47.671654       -7.262608
 N         -16.157753      -46.595764       -7.201782
 H         -16.918415      -48.371639      -10.214856
 H         -15.569491      -48.257114      -11.203745
 C         -16.510134      -47.768829      -11.003067
 C         -16.305269      -46.342785      -10.565603
 C         -17.417278      -47.770836      -12.202902
 C         -15.939671      -45.280659      -11.649477
 C         -16.895315      -46.797153      -13.255791
 C         -16.865467      -45.315582      -12.855765
 H         -15.462562      -46.333542       -9.875312
 H         -17.284729      -46.039211      -10.070127
 H         -17.554893      -48.797009      -12.585505
 H         -18.356134      -47.326157      -11.817797
 H         -14.894669      -45.433548      -11.973779
 H         -16.079121      -44.269196      -11.228342
 H         -17.594706      -46.690971      -14.136579
 H         -15.953246      -47.173492      -13.635120
 H         -16.477627      -44.747597      -13.688889
 H         -17.899874      -45.009411      -12.555115
