20
 generated by VMD
 C         -50.699902     -129.170563      -42.869263
 N         -50.373688     -128.247192      -42.180279
 H         -48.480770     -127.776726      -40.312248
 H         -51.036678     -130.085983      -43.380306
 C         -47.383934     -127.661140      -40.561344
 C         -46.287205     -128.482727      -40.136215
 C         -47.183994     -126.267052      -41.161442
 C         -45.008755     -128.441177      -40.970058
 C         -45.935295     -126.193085      -42.065266
 C         -44.834450     -126.957390      -41.329411
 H         -46.747280     -129.519989      -40.143383
 H         -46.104214     -128.346008      -39.071613
 H         -48.149128     -125.981628      -41.642715
 H         -46.932983     -125.536346      -40.476913
 H         -45.287460     -129.019028      -41.919201
 H         -44.195915     -128.740677      -40.229546
 H         -45.805382     -125.132347      -42.289696
 H         -46.288967     -126.705360      -42.981991
 H         -44.009346     -126.835373      -41.947502
 H         -44.643082     -126.377243      -40.433933
