20
 generated by VMD
 C         -79.129257     -205.746063      -73.533455
 N         -79.199989     -206.890640      -73.776627
 H         -78.735268     -206.086761      -70.617073
 H         -79.230064     -204.738861      -73.238335
 C         -77.672707     -206.220047      -70.467773
 C         -76.730911     -205.444305      -71.333511
 C         -77.126427     -207.422546      -69.818001
 C         -75.331169     -205.304230      -70.721710
 C         -75.766998     -207.263489      -69.234413
 C         -74.791100     -206.720505      -70.299652
 H         -77.213295     -204.496719      -71.374512
 H         -76.574715     -205.821823      -72.344734
 H         -77.923706     -207.577011      -69.115288
 H         -77.158287     -208.331757      -70.482384
 H         -75.376778     -204.762344      -69.791893
 H         -74.647461     -204.699280      -71.334473
 H         -75.363907     -208.216965      -68.780510
 H         -75.716507     -206.546371      -68.498375
 H         -73.859993     -206.630249      -69.739769
 H         -74.464500     -207.184464      -71.226784
