20
 generated by VMD
 C         -53.017559     -146.813187      -45.058788
 N         -52.129803     -147.203384      -44.373997
 H         -54.853237     -146.749725      -47.887707
 H         -53.866390     -146.542740      -45.729160
 C         -54.411316     -145.808258      -48.293480
 C         -53.161625     -145.657928      -49.094257
 C         -55.084694     -144.586594      -47.839382
 C         -53.341175     -144.720001      -50.410759
 C         -55.290874     -143.591965      -48.986828
 C         -53.994144     -143.353943      -49.880043
 H         -52.654251     -146.651489      -49.396366
 H         -52.431702     -145.206818      -48.454723
 H         -56.072521     -144.779480      -47.331097
 H         -54.512363     -144.041687      -46.986546
 H         -53.899929     -145.334015      -51.251644
 H         -52.363808     -144.323013      -50.999496
 H         -55.655560     -142.516937      -48.688412
 H         -56.080883     -144.013412      -49.629837
 H         -54.248993     -142.666779      -50.726971
 H         -53.276478     -142.829224      -49.175613
