20
 generated by VMD
 C         -49.850143     -128.535461      -43.157730
 N         -50.636398     -129.006485      -43.877243
 H         -48.651981     -128.198654      -39.673164
 H         -49.101639     -128.131317      -42.493397
 C         -47.849125     -128.263824      -40.374561
 C         -46.719147     -129.246674      -39.957424
 C         -47.445354     -126.972763      -41.071972
 C         -45.689846     -129.381760      -41.093727
 C         -46.394703     -127.214027      -42.171295
 C         -45.248882     -128.033997      -41.609520
 H         -47.118450     -130.197800      -39.667175
 H         -46.258965     -128.821609      -39.007156
 H         -48.260647     -126.419716      -41.539623
 H         -46.808983     -126.340767      -40.427734
 H         -45.889782     -130.188309      -41.866287
 H         -44.765636     -129.976425      -40.762779
 H         -45.954330     -126.257446      -42.698341
 H         -46.908619     -127.758568      -43.046818
 H         -44.490555     -128.222687      -42.371658
 H         -44.801224     -127.583839      -40.767082
