20
 generated by VMD
 C         -60.507874     -169.689224      -55.220188
 N         -59.355480     -169.369553      -55.342297
 H         -63.202709     -170.568436      -56.715191
 H         -61.526440     -170.001495      -54.898853
 C         -63.417049     -169.557770      -57.036572
 C         -62.564533     -169.057312      -58.158920
 C         -63.885647     -168.698395      -55.940796
 C         -63.211552     -167.809052      -58.755161
 C         -64.527687     -167.387009      -56.577286
 C         -63.503403     -166.826569      -57.594753
 H         -62.481495     -169.838531      -58.806366
 H         -61.493450     -168.682770      -57.985481
 H         -64.568031     -169.225204      -55.378113
 H         -63.065533     -168.367462      -55.308716
 H         -64.125259     -168.243835      -59.241646
 H         -62.593586     -167.431747      -59.609299
 H         -64.902763     -166.684326      -55.820477
 H         -65.313850     -167.731140      -57.119568
 H         -63.841850     -165.869385      -57.990147
 H         -62.554035     -166.651566      -57.113564
