20
 generated by VMD
 C         -68.581009     -185.437195      -67.154350
 N         -67.651810     -185.098038      -66.523285
 H         -69.303246     -187.497589      -64.930946
 H         -69.463875     -185.596222      -67.682968
 C         -69.582184     -187.154953      -63.912258
 C         -70.099426     -185.787613      -63.594105
 C         -69.658356     -188.290466      -62.988426
 C         -69.707123     -185.383530      -62.208729
 C         -69.623672     -187.873154      -61.473991
 C         -70.182312     -186.360291      -61.132133
 H         -71.152832     -185.745193      -63.841175
 H         -69.634537     -185.125961      -64.265846
 H         -70.618729     -188.730957      -63.245819
 H         -68.994682     -189.113876      -63.180878
 H         -70.158325     -184.392166      -61.998062
 H         -68.673378     -185.206070      -62.239281
 H         -68.502640     -187.904541      -61.130997
 H         -70.310684     -188.573318      -60.905422
 H         -71.229660     -186.337402      -61.333469
 H         -69.863693     -186.184143      -60.129894
