20
 generated by VMD
 C         -51.594055     -130.021988      -45.125160
 N         -51.753304     -129.401581      -46.104267
 H         -48.692390     -129.900391      -42.952202
 H         -51.757961     -130.623154      -44.206970
 C         -47.894653     -130.030457      -42.290073
 C         -47.874077     -131.407669      -41.755970
 C         -47.368412     -128.882843      -41.604134
 C         -46.559856     -131.669357      -41.047298
 C         -46.025665     -129.178436      -41.002354
 C         -46.154385     -130.502304      -40.072948
 H         -48.117886     -132.119766      -42.512196
 H         -48.687302     -131.546417      -40.951126
 H         -47.196072     -128.091537      -42.413918
 H         -48.055599     -128.515091      -40.909473
 H         -45.723354     -131.887146      -41.804665
 H         -46.592945     -132.720398      -40.634052
 H         -45.734646     -128.388336      -40.319046
 H         -45.158768     -129.464859      -41.651783
 H         -45.191551     -130.808365      -39.702671
 H         -46.952698     -130.374939      -39.297665
