20
 generated by VMD
 C         -59.844677     -157.027267      -56.699543
 N         -60.940262     -156.621979      -56.657021
 H         -59.683289     -157.394470      -53.423466
 H         -58.836094     -157.346909      -56.827507
 C         -59.065556     -157.849121      -52.657921
 C         -57.840038     -157.100555      -52.120201
 C         -59.105774     -159.363876      -52.502903
 C         -57.270237     -157.682602      -50.828773
 C         -58.512520     -159.832672      -51.132046
 C         -57.151192     -159.137878      -50.796398
 H         -58.064934     -156.015396      -52.160755
 H         -57.094215     -157.223938      -52.804188
 H         -60.098103     -159.704605      -52.588814
 H         -58.445080     -159.812256      -53.299835
 H         -57.905704     -157.452042      -50.074669
 H         -56.327812     -157.143692      -50.582737
 H         -58.482601     -160.953156      -51.022720
 H         -59.268353     -159.499176      -50.432060
 H         -56.858589     -159.368668      -49.817150
 H         -56.269073     -159.512329      -51.400761
