20
 generated by VMD
 C         -43.296127     -121.168175      -35.839909
 N         -43.425316     -120.508163      -34.885788
 H         -44.540440     -122.142509      -38.953781
 H         -43.020233     -121.824112      -36.598156
 C         -44.652889     -121.190392      -39.328602
 C         -43.391968     -120.533318      -39.734150
 C         -45.767628     -120.349228      -38.827785
 C         -43.524734     -119.219406      -40.428097
 C         -45.821053     -118.887749      -39.411114
 C         -44.444462     -118.230652      -39.414265
 H         -42.843147     -121.168121      -40.377304
 H         -42.661503     -120.551048      -38.881905
 H         -46.693684     -120.822853      -39.051018
 H         -45.704842     -120.148140      -37.774422
 H         -43.897018     -119.512550      -41.442696
 H         -42.555191     -118.759605      -40.526051
 H         -46.543415     -118.239868      -38.894165
 H         -46.205635     -119.059738      -40.520721
 H         -44.531441     -117.194756      -39.850452
 H         -43.799316     -118.041367      -38.488262
