20
 generated by VMD
 C         -23.517441      -54.820396      -14.869195
 N         -23.299049      -54.195778      -15.808933
 H         -20.369627      -54.807510      -15.234943
 H         -23.859514      -55.256264      -14.062916
 C         -19.454506      -55.218941      -14.769045
 C         -18.908337      -54.668835      -13.555064
 C         -19.097107      -56.511349      -15.398824
 C         -18.901247      -55.719807      -12.440626
 C         -18.836021      -57.549221      -14.221919
 C         -18.110352      -56.980015      -12.954975
 H         -19.492971      -53.774590      -13.165565
 H         -17.811695      -54.418415      -13.695967
 H         -19.950712      -56.940369      -15.996338
 H         -18.201443      -56.203026      -16.091410
 H         -19.900406      -55.933025      -12.076352
 H         -18.418472      -55.254547      -11.557239
 H         -18.359505      -58.370750      -14.647618
 H         -19.805271      -57.937740      -13.860613
 H         -17.976198      -57.714569      -12.120439
 H         -17.034185      -56.727776      -13.186792
