20
 generated by VMD
 C         -59.926601     -152.374146      -51.024376
 N         -60.810799     -153.077408      -51.344582
 H         -56.845684     -152.422913      -48.868469
 H         -59.070766     -151.720032      -50.769352
 C         -55.989056     -152.038574      -49.419044
 C         -54.693886     -152.702820      -49.496529
 C         -56.026695     -150.554398      -49.688324
 C         -54.003819     -152.276276      -50.896595
 C         -55.230709     -149.979019      -50.961102
 C         -53.852444     -150.741638      -51.061600
 H         -54.891392     -153.793396      -49.393818
 H         -54.032509     -152.533798      -48.718025
 H         -57.126347     -150.263153      -49.708649
 H         -55.488297     -150.089584      -48.779942
 H         -54.658031     -152.622452      -51.688274
 H         -53.115887     -152.928268      -51.132225
 H         -54.963120     -148.998581      -50.671101
 H         -55.748840     -150.094910      -52.007900
 H         -53.110161     -150.419708      -51.807140
 H         -53.321747     -150.490250      -50.079872
