20
 generated by VMD
 C         -29.970657      -79.896896      -26.297266
 N         -29.403280      -79.970604      -27.316059
 H         -28.336725      -82.707420      -25.138664
 H         -30.208082      -79.966484      -25.157139
 C         -29.178438      -82.888840      -24.548674
 C         -29.181320      -82.396378      -23.076828
 C         -30.007462      -84.195137      -24.810375
 C         -30.536312      -82.525002      -22.352291
 C         -31.297598      -84.121902      -24.016880
 C         -31.225620      -83.797371      -22.573404
 H         -28.968962      -81.381470      -22.906195
 H         -28.383303      -82.877464      -22.391552
 H         -30.297152      -84.287186      -25.829521
 H         -29.281317      -84.994133      -24.710337
 H         -31.273060      -81.671761      -22.688927
 H         -30.484980      -82.243393      -21.331116
 H         -31.932076      -84.954796      -24.190954
 H         -31.855465      -83.378784      -24.538887
 H         -32.191174      -83.803749      -22.206739
 H         -30.735893      -84.722229      -22.147137
