20
 generated by VMD
 C         -70.205635     -183.346268      -65.743431
 N         -69.350876     -182.601196      -65.936302
 H         -68.329651     -185.128281      -62.843842
 H         -71.068375     -184.041672      -65.547951
 C         -67.915810     -184.298416      -62.231968
 C         -68.115730     -184.588196      -60.801052
 C         -68.021942     -182.852844      -62.670238
 C         -67.274826     -183.715302      -59.912579
 C         -67.064178     -182.022720      -61.758404
 C         -67.491859     -182.246201      -60.258419
 H         -68.123375     -185.679321      -60.571972
 H         -69.152557     -184.308884      -60.437138
 H         -67.643074     -182.880646      -63.769531
 H         -69.003738     -182.449280      -62.559719
 H         -66.214546     -183.885681      -59.861259
 H         -67.640663     -183.747009      -58.841068
 H         -67.338013     -181.041931      -62.122917
 H         -65.996979     -182.275452      -61.798439
 H         -67.054604     -181.522171      -59.404369
 H         -68.537483     -181.997208      -60.325550
