20
 generated by VMD
 C         -79.482834     -205.422409      -70.935463
 N         -80.287819     -206.121964      -71.402481
 H         -77.398247     -203.149063      -69.933472
 H         -78.630669     -204.713791      -70.719429
 C         -76.320023     -203.279419      -70.188507
 C         -75.281395     -202.238098      -70.451668
 C         -75.755135     -204.663055      -70.065193
 C         -73.842018     -202.654724      -70.421822
 C         -74.602142     -204.716919      -69.095673
 C         -73.472473     -203.947006      -69.730644
 H         -75.554115     -201.471664      -69.689667
 H         -75.459625     -201.744339      -71.415634
 H         -76.605812     -205.206024      -69.569038
 H         -75.426086     -205.108353      -71.073990
 H         -73.220268     -201.891708      -69.994370
 H         -73.482811     -202.860931      -71.381355
 H         -74.398811     -205.665192      -68.734421
 H         -74.826164     -203.993851      -68.257355
 H         -72.830688     -203.728668      -68.974442
 H         -72.907227     -204.479828      -70.467590
