20
 generated by VMD
 C         -49.339214     -132.441223      -46.805424
 N         -50.288383     -131.934647      -47.168118
 H         -47.414482     -134.201584      -43.862751
 H         -48.582279     -132.998001      -46.291107
 C         -48.368008     -134.528824      -43.533348
 C         -49.091694     -135.836456      -43.885983
 C         -49.274414     -133.459076      -43.082016
 C         -49.921185     -136.298462      -42.734089
 C         -50.111233     -133.815536      -41.894989
 C         -50.817291     -135.234894      -42.093769
 H         -48.423859     -136.598648      -44.192841
 H         -49.783958     -135.612503      -44.745155
 H         -48.664219     -132.565903      -42.770634
 H         -49.860142     -133.166931      -44.045612
 H         -49.277115     -136.692642      -41.875828
 H         -50.578068     -137.224014      -42.873894
 H         -50.849701     -133.027374      -41.735825
 H         -49.517372     -133.816803      -41.030209
 H         -51.147087     -135.596771      -41.161148
 H         -51.568283     -134.924866      -42.933331
