20
 generated by VMD
 C         -21.343843      -52.438881      -11.392795
 N         -21.438435      -52.902149      -10.370041
 H         -19.957355      -50.482979      -13.561427
 H         -21.272533      -51.920277      -12.576264
 C         -18.926254      -50.871792      -13.300411
 C         -18.319017      -51.850491      -14.271770
 C         -18.161922      -50.576584      -12.116627
 C         -16.751822      -51.979374      -14.352206
 C         -16.672785      -50.468922      -12.472526
 C         -16.121134      -51.807961      -12.959433
 H         -18.636183      -51.548946      -15.270294
 H         -18.736149      -52.866638      -14.188661
 H         -18.435169      -49.526443      -11.728246
 H         -18.396994      -51.320812      -11.360555
 H         -16.410858      -51.225903      -15.096126
 H         -16.368479      -52.993473      -14.592336
 H         -16.122871      -49.998138      -11.619420
 H         -16.542599      -49.784389      -13.331896
 H         -15.050448      -51.693047      -13.115926
 H         -16.294546      -52.600590      -12.231681
