20
 generated by VMD
 C         -68.844238     -180.443527      -62.510185
 N         -69.935692     -180.571671      -62.134426
 H         -66.969772     -180.879593      -59.479130
 H         -67.843292     -180.308212      -62.807819
 C         -66.474098     -180.043808      -59.869934
 C         -65.200119     -180.102631      -60.740650
 C         -66.614525     -178.633469      -59.080494
 C         -65.146629     -178.955444      -61.754734
 C         -66.387535     -177.486481      -60.074802
 C         -65.082413     -177.701050      -60.874939
 H         -65.278778     -180.997925      -61.366699
 H         -64.301659     -180.165726      -60.186432
 H         -67.580009     -178.604202      -58.599823
 H         -65.868378     -178.637909      -58.231812
 H         -66.039810     -178.934601      -62.398251
 H         -64.323013     -179.202866      -62.442142
 H         -66.202324     -176.580566      -59.471203
 H         -67.230667     -177.308411      -60.745983
 H         -64.797340     -176.924484      -61.531456
 H         -64.212418     -177.733673      -60.357151
