20
 generated by VMD
 C          -1.459512      -10.736099        1.439324
 N          -0.942126      -11.737178        1.252453
 H          -3.908409      -13.153866        0.075580
 H          -5.308310      -12.698740        0.875562
 C          -4.629297      -13.558860        0.829167
 C          -3.908326      -13.927368        2.140650
 C          -5.258828      -14.793964        0.178463
 C          -4.867223      -14.446858        3.107515
 C          -6.229487      -15.503919        1.138147
 C          -5.613446      -15.683722        2.573317
 H          -3.430146      -13.009331        2.526670
 H          -3.137037      -14.725014        1.868706
 H          -5.790389      -14.413538       -0.680339
 H          -4.549612      -15.417028       -0.276099
 H          -5.656795      -13.676718        3.324695
 H          -4.390407      -14.663410        4.080753
 H          -6.731238      -16.417891        0.809736
 H          -7.031851      -14.748655        1.355698
 H          -6.274350      -16.072598        3.317138
 H          -4.853806      -16.419016        2.485080
