20
 generated by VMD
 C         -18.140076      -49.858398       -8.797056
 N         -19.236851      -49.948967       -8.942062
 H         -16.326817      -47.175205      -10.033315
 H         -17.240602      -48.696938      -10.348611
 C         -16.725315      -47.795406      -10.852548
 C         -15.492521      -48.355270      -11.578561
 C         -17.749504      -47.024765      -11.717426
 C         -15.910729      -49.112118      -12.892563
 C         -18.088840      -47.704525      -13.030507
 C         -16.814131      -48.239323      -13.779447
 H         -14.951641      -48.990311      -10.896557
 H         -14.801728      -47.559834      -11.939892
 H         -18.690245      -46.987297      -11.168931
 H         -17.454105      -46.006378      -11.786507
 H         -16.384651      -50.045803      -12.570789
 H         -15.045023      -49.469093      -13.486722
 H         -18.526955      -46.982803      -13.621891
 H         -18.869179      -48.470249      -12.792098
 H         -17.136024      -48.890694      -14.671485
 H         -16.224094      -47.345226      -14.182275
