20
 generated by VMD
 C         -60.817039     -153.303345      -52.355995
 N         -60.728405     -152.942856      -51.208126
 H         -57.382595     -153.966431      -50.614426
 H         -60.932770     -153.503479      -53.405815
 C         -56.459072     -153.389023      -50.527855
 C         -55.519630     -153.589355      -49.340496
 C         -56.501518     -152.091675      -51.255062
 C         -54.162384     -153.150864      -49.980335
 C         -55.156647     -151.528564      -51.683937
 C         -54.169132     -151.803497      -50.541489
 H         -55.312504     -154.628998      -49.045811
 H         -56.008350     -153.000778      -48.508083
 H         -57.084221     -152.348419      -52.162025
 H         -57.105625     -151.392441      -50.710487
 H         -53.860287     -153.874405      -50.752220
 H         -53.207275     -153.303070      -49.356598
 H         -55.235123     -150.395065      -51.737801
 H         -54.940563     -152.014709      -52.743805
 H         -53.173260     -151.321121      -50.886791
 H         -54.410694     -151.022522      -49.796860
