20
 generated by VMD
 C         -11.660166      -41.974903       -6.648655
 N         -11.194873      -40.975147       -6.906728
 H         -14.415120      -40.732281       -8.500982
 H         -15.523725      -40.355782       -9.777240
 C         -15.141498      -41.155918       -9.184152
 C         -16.330847      -41.821957       -8.536561
 C         -14.509019      -42.238529      -10.039016
 C         -17.361391      -42.409904       -9.500310
 C         -15.458291      -42.746422      -11.105235
 C         -16.604692      -43.409645      -10.407730
 H         -16.892401      -41.124546       -7.901278
 H         -16.067348      -42.586269       -7.848087
 H         -13.593224      -41.789715      -10.511047
 H         -14.165420      -43.065613       -9.386871
 H         -17.756525      -41.615887      -10.136520
 H         -18.140316      -42.826855       -8.852647
 H         -14.926850      -43.504356      -11.672728
 H         -15.713964      -41.880646      -11.772376
 H         -17.360275      -43.806675      -11.119197
 H         -16.167105      -44.244526       -9.863736
