20
 generated by VMD
 C         -68.407249     -185.244278      -67.215179
 N         -67.651161     -186.091629      -66.951965
 H         -69.957047     -185.194626      -64.566536
 H         -69.050507     -184.408218      -67.354355
 C         -69.709373     -185.336090      -63.485271
 C         -70.801582     -185.094650      -62.531116
 C         -68.466370     -186.125610      -63.224800
 C         -70.406883     -185.374878      -61.122208
 C         -68.256531     -186.527359      -61.698215
 C         -69.538399     -186.641205      -60.940384
 H         -71.699554     -185.703735      -62.737930
 H         -71.241837     -184.125916      -62.722878
 H         -68.225296     -186.986115      -63.838894
 H         -67.714851     -185.452530      -63.540997
 H         -71.372124     -185.425156      -60.602749
 H         -69.938187     -184.532410      -60.674332
 H         -67.686882     -185.775986      -61.184807
 H         -67.604553     -187.385315      -61.647099
 H         -70.150047     -187.486771      -61.296528
 H         -69.576752     -186.918625      -59.842239
