20
 generated by VMD
 C         -38.556362     -109.531807      -36.310001
 N         -37.569859     -108.944839      -36.231873
 H         -42.339760     -110.145500      -36.663185
 H         -39.454865     -110.051224      -36.426403
 C         -42.064816     -110.796120      -35.918381
 C         -41.768120     -112.245995      -36.068279
 C         -42.689526     -110.230675      -34.578846
 C         -40.874596     -112.537865      -34.813805
 C         -41.756981     -110.763893      -33.437740
 C         -41.501961     -112.315109      -33.470814
 H         -41.290970     -112.349899      -37.013447
 H         -42.698566     -112.853127      -36.037998
 H         -42.832214     -109.145988      -34.643131
 H         -43.645290     -110.682205      -34.572884
 H         -39.943813     -112.101944      -34.886318
 H         -40.571690     -113.640503      -34.904812
 H         -42.043339     -110.417740      -32.408787
 H         -40.721989     -110.345695      -33.567142
 H         -40.704296     -112.529320      -32.663143
 H         -42.353561     -112.818413      -33.271782
