20
 generated by VMD
 C         -80.022148     -206.832916      -74.026138
 N         -80.556061     -207.065918      -75.056854
 H         -77.009941     -206.813858      -72.860191
 H         -79.398651     -206.778870      -73.074997
 C         -76.635551     -207.425262      -71.984169
 C         -75.302643     -207.215622      -71.427086
 C         -77.324554     -208.706375      -71.424477
 C         -75.514961     -206.903503      -69.961365
 C         -77.677452     -208.480438      -69.899887
 C         -76.341888     -207.960724      -69.188873
 H         -74.931564     -206.391541      -72.028061
 H         -74.615067     -208.113373      -71.467918
 H         -78.277481     -208.755814      -71.933365
 H         -76.816475     -209.640549      -71.604500
 H         -75.919197     -205.855621      -69.904953
 H         -74.585266     -206.821518      -69.382767
 H         -78.097771     -209.272293      -69.360283
 H         -78.422768     -207.627167      -69.892563
 H         -76.483940     -207.824783      -68.055717
 H         -75.774490     -208.890640      -69.281204
