20
 generated by VMD
 C         -44.441387     -122.127975      -35.989815
 N         -43.941261     -121.123589      -35.918793
 H         -45.140717     -122.650642      -39.518436
 H         -44.956322     -123.113037      -36.196369
 C         -44.870121     -121.634979      -39.479866
 C         -43.488800     -121.124763      -39.489700
 C         -45.968731     -120.664467      -39.174759
 C         -43.275635     -119.787300      -40.084206
 C         -45.685566     -119.341270      -39.843319
 C         -44.333576     -118.743126      -39.583397
 H         -42.846222     -121.894127      -40.129940
 H         -43.032337     -121.150589      -38.480770
 H         -46.912941     -121.197357      -39.298378
 H         -45.963383     -120.470184      -38.130600
 H         -43.329002     -119.898064      -41.216236
 H         -42.238354     -119.421188      -40.070709
 H         -46.555790     -118.839355      -39.743595
 H         -45.778194     -119.480263      -40.941090
 H         -44.193485     -117.787643      -40.069824
 H         -44.201885     -118.575142      -38.513187
